<?xml version="1.0" encoding="UTF-8"?>
<!-- generated on 2022-06-02 12:40:06.607029 by generateContinuousRerouters.py v1_13_0+0000-4b5bca80615
  options: -n grid.net.xml <doubleminus>end 500 -o rerouter.add.xml
-->
<additional xmlns:xsi="http://www.w3.org/2001/XMLSchema-instance" xsi:noNamespaceSchemaLocation="http://sumo.dlr.de/xsd/additional_file.xsd">
    <route id="-146505402#3_-146505402#1" edges="-146505402#3 -146505402#1 26351491#1"/>
    <route id="146505402#1_146505402#2" edges="146505402#1 146505402#2"/>
    <route id="-146505402#1_26351491#1" edges="-146505402#1 26351491#1"/>
    <route id="-26351492#0_146505402#1" edges="-26351492#0 146505402#1 146505402#2"/>
    <route id="-146512473#1_-146505402#3" edges="-146512473#1 -146505402#3 -146505402#1 26351491#1"/>
    <route id="-146512473#1_-E0" edges="-146512473#1 -E0"/>
    <rerouter id="rr_-146512473#1" edges="-146512473#1">
        <interval begin="0" end="500">
            <routeProbReroute id="-146512473#1_-146505402#3" probability="50.0"/>
            <routeProbReroute id="-146512473#1_-E0" probability="30.0"/>
        </interval>
    </rerouter>
    <route id="146505402#2_-E0" edges="146505402#2 -E0"/>
    <route id="146505402#2_146512473#0" edges="146505402#2 146512473#0 -146512473#1"/>
    <rerouter id="rr_146505402#2" edges="146505402#2">
        <interval begin="0" end="500">
            <routeProbReroute id="146505402#2_-E0" probability="20.0"/>
            <routeProbReroute id="146505402#2_146512473#0" probability="50.0"/>
        </interval>
    </rerouter>
    <route id="E0_-146505402#3" edges="E0 -146505402#3 -146505402#1 26351491#1"/>
    <route id="E0_146512473#0" edges="E0 146512473#0 -146512473#1"/>
    <rerouter id="rr_E0" edges="E0">
        <interval begin="0" end="500">
            <routeProbReroute id="E0_-146505402#3" probability="30.0"/>
            <routeProbReroute id="E0_146512473#0" probability="20.0"/>
        </interval>
    </rerouter>
    <route id="-146512473#6_146512473#2" edges="-146512473#6 146512473#2"/>
    <route id="146512473#0_-146512473#1" edges="146512473#0 -146512473#1"/>
    <route id="26351508#1_-26351508#2" edges="26351508#1 -26351508#2 26351508#1"/>
    <route id="-E3_-146512473#10" edges="-E3 -146512473#10"/>
    <route id="146512473#7_E3" edges="146512473#7 E3"/>
    <route id="-146512473#10_-146512473#6" edges="-146512473#10 -146512473#6 146512473#2"/>
    <route id="-146512473#10_146512473#7" edges="-146512473#10 146512473#7 E3"/>
    <route id="-146512473#10_26351511#1" edges="-146512473#10 26351511#1"/>
    <rerouter id="rr_-146512473#10" edges="-146512473#10">
        <interval begin="0" end="500">
            <routeProbReroute id="-146512473#10_-146512473#6" probability="50.0"/>
            <routeProbReroute id="-146512473#10_146512473#7" probability="0"/>
            <routeProbReroute id="-146512473#10_26351511#1" probability="30.0"/>
        </interval>
    </rerouter>
    <route id="-26351511#1_-146512473#6" edges="-26351511#1 -146512473#6 146512473#2"/>
    <route id="-26351511#1_146512473#7" edges="-26351511#1 146512473#7 E3"/>
    <route id="-26351511#1_26351511#1" edges="-26351511#1 26351511#1"/>
    <rerouter id="rr_-26351511#1" edges="-26351511#1">
        <interval begin="0" end="500">
            <routeProbReroute id="-26351511#1_-146512473#6" probability="30.0"/>
            <routeProbReroute id="-26351511#1_146512473#7" probability="20.0"/>
            <routeProbReroute id="-26351511#1_26351511#1" probability="30.0"/>
        </interval>
    </rerouter>
    <route id="146512473#2_-146512473#6" edges="146512473#2 -146512473#6 146512473#2"/>
    <route id="146512473#2_146512473#7" edges="146512473#2 146512473#7 E3"/>
    <route id="146512473#2_26351511#1" edges="146512473#2 26351511#1"/>
    <rerouter id="rr_146512473#2" edges="146512473#2">
        <interval begin="0" end="500">
            <routeProbReroute id="146512473#2_-146512473#6" probability="0"/>
            <routeProbReroute id="146512473#2_146512473#7" probability="50.0"/>
            <routeProbReroute id="146512473#2_26351511#1" probability="20.0"/>
        </interval>
    </rerouter>
    <route id="159664166#0_-166548734#1" edges="159664166#0 -166548734#1 166548734#0"/>
    <route id="159664166#0_-26389264#6" edges="159664166#0 -26389264#6"/>
    <rerouter id="rr_159664166#0" edges="159664166#0">
        <interval begin="0" end="500">
            <routeProbReroute id="159664166#0_-166548734#1" probability="20.0"/>
            <routeProbReroute id="159664166#0_-26389264#6" probability="50.0"/>
        </interval>
    </rerouter>
    <route id="166548734#0_-159664166#0" edges="166548734#0 -159664166#0"/>
    <route id="166548734#0_-26389264#6" edges="166548734#0 -26389264#6"/>
    <rerouter id="rr_166548734#0" edges="166548734#0">
        <interval begin="0" end="500">
            <routeProbReroute id="166548734#0_-159664166#0" probability="30.0"/>
            <routeProbReroute id="166548734#0_-26389264#6" probability="20.0"/>
        </interval>
    </rerouter>
    <route id="26389264#3_-159664166#0" edges="26389264#3 -159664166#0"/>
    <route id="26389264#3_-166548734#1" edges="26389264#3 -166548734#1 166548734#0"/>
    <rerouter id="rr_26389264#3" edges="26389264#3">
        <interval begin="0" end="500">
            <routeProbReroute id="26389264#3_-159664166#0" probability="50.0"/>
            <routeProbReroute id="26389264#3_-166548734#1" probability="30.0"/>
        </interval>
    </rerouter>
    <route id="-159664166#0_-E3" edges="-159664166#0 -E3 -146512473#10"/>
    <route id="-159664166#0_159393364#1" edges="-159664166#0 159393364#1"/>
    <rerouter id="rr_-159664166#0" edges="-159664166#0">
        <interval begin="0" end="500">
            <routeProbReroute id="-159664166#0_-E3" probability="30.0"/>
            <routeProbReroute id="-159664166#0_159393364#1" probability="20.0"/>
        </interval>
    </rerouter>
    <route id="33753312#3_-E3" edges="33753312#3 -E3 -146512473#10"/>
    <route id="33753312#3_159393364#1" edges="33753312#3 159393364#1"/>
    <route id="33753312#3_159664166#0" edges="33753312#3 159664166#0"/>
    <rerouter id="rr_33753312#3" edges="33753312#3">
        <interval begin="0" end="500">
            <routeProbReroute id="33753312#3_-E3" probability="50.0"/>
            <routeProbReroute id="33753312#3_159393364#1" probability="0"/>
            <routeProbReroute id="33753312#3_159664166#0" probability="30.0"/>
        </interval>
    </rerouter>
    <route id="E3_159393364#1" edges="E3 159393364#1"/>
    <route id="E3_159664166#0" edges="E3 159664166#0"/>
    <rerouter id="rr_E3" edges="E3">
        <interval begin="0" end="500">
            <routeProbReroute id="E3_159393364#1" probability="50.0"/>
            <routeProbReroute id="E3_159664166#0" probability="20.0"/>
        </interval>
    </rerouter>
    <route id="-166548734#1_166548734#0" edges="-166548734#1 166548734#0"/>
    <route id="-26351520#0_26351520#0" edges="-26351520#0 26351520#0"/>
    <route id="-25413576#2_-25413576#0" edges="-25413576#2 -25413576#0 -59472986#1"/>
    <route id="-25413576#2_26351507#0" edges="-25413576#2 26351507#0"/>
    <rerouter id="rr_-25413576#2" edges="-25413576#2">
        <interval begin="0" end="500">
            <routeProbReroute id="-25413576#2_-25413576#0" probability="50.0"/>
            <routeProbReroute id="-25413576#2_26351507#0" probability="20.0"/>
        </interval>
    </rerouter>
    <route id="-26351507#1_-25413576#0" edges="-26351507#1 -25413576#0 -59472986#1"/>
    <route id="-26351507#1_25413576#2" edges="-26351507#1 25413576#2 25413576#3 25413576#4"/>
    <rerouter id="rr_-26351507#1" edges="-26351507#1">
        <interval begin="0" end="500">
            <routeProbReroute id="-26351507#1_-25413576#0" probability="20.0"/>
            <routeProbReroute id="-26351507#1_25413576#2" probability="30.0"/>
        </interval>
    </rerouter>
    <route id="25413576#0_25413576#2" edges="25413576#0 25413576#2 25413576#3 25413576#4"/>
    <route id="25413576#0_26351507#0" edges="25413576#0 26351507#0"/>
    <rerouter id="rr_25413576#0" edges="25413576#0">
        <interval begin="0" end="500">
            <routeProbReroute id="25413576#0_25413576#2" probability="50.0"/>
            <routeProbReroute id="25413576#0_26351507#0" probability="30.0"/>
        </interval>
    </rerouter>
    <route id="-25413576#0_-59472986#1" edges="-25413576#0 -59472986#1"/>
    <route id="59472986#0_25413576#0" edges="59472986#0 25413576#0"/>
    <route id="-33753312#2_-25413576#10" edges="-33753312#2 -25413576#10"/>
    <route id="25413576#10_33753312#0" edges="25413576#10 33753312#0"/>
    <route id="-25413576#10_-E4" edges="-25413576#10 -E4"/>
    <route id="-25413576#10_26389264#3" edges="-25413576#10 26389264#3"/>
    <rerouter id="rr_-25413576#10" edges="-25413576#10">
        <interval begin="0" end="500">
            <routeProbReroute id="-25413576#10_-E4" probability="50.0"/>
            <routeProbReroute id="-25413576#10_26389264#3" probability="20.0"/>
        </interval>
    </rerouter>
    <route id="-26389264#6_-E4" edges="-26389264#6 -E4"/>
    <route id="-26389264#6_25413576#10" edges="-26389264#6 25413576#10 33753312#0"/>
    <rerouter id="rr_-26389264#6" edges="-26389264#6">
        <interval begin="0" end="500">
            <routeProbReroute id="-26389264#6_-E4" probability="20.0"/>
            <routeProbReroute id="-26389264#6_25413576#10" probability="30.0"/>
        </interval>
    </rerouter>
    <route id="E4_25413576#10" edges="E4 25413576#10 33753312#0"/>
    <route id="E4_26389264#3" edges="E4 26389264#3"/>
    <rerouter id="rr_E4" edges="E4">
        <interval begin="0" end="500">
            <routeProbReroute id="E4_25413576#10" probability="50.0"/>
            <routeProbReroute id="E4_26389264#3" probability="30.0"/>
        </interval>
    </rerouter>
    <route id="-25413576#3_-25413576#2" edges="-25413576#3 -25413576#2"/>
    <route id="25413576#2_25413576#3" edges="25413576#2 25413576#3 25413576#4"/>
    <route id="-25413576#5_-25413576#3" edges="-25413576#5 -25413576#3 -25413576#2"/>
    <route id="25413576#3_25413576#4" edges="25413576#3 25413576#4"/>
    <route id="-E4_-25413576#5" edges="-E4 -25413576#5 -25413576#3 -25413576#2"/>
    <route id="-E4_-26351520#3" edges="-E4 -26351520#3"/>
    <rerouter id="rr_-E4" edges="-E4">
        <interval begin="0" end="500">
            <routeProbReroute id="-E4_-25413576#5" probability="50.0"/>
            <routeProbReroute id="-E4_-26351520#3" probability="20.0"/>
        </interval>
    </rerouter>
    <route id="25413576#4_-25413576#5" edges="25413576#4 -25413576#5 -25413576#3 -25413576#2"/>
    <route id="25413576#4_-26351520#3" edges="25413576#4 -26351520#3"/>
    <route id="25413576#4_E4" edges="25413576#4 E4"/>
    <rerouter id="rr_25413576#4" edges="25413576#4">
        <interval begin="0" end="500">
            <routeProbReroute id="25413576#4_-25413576#5" probability="0"/>
            <routeProbReroute id="25413576#4_-26351520#3" probability="30.0"/>
            <routeProbReroute id="25413576#4_E4" probability="50.0"/>
        </interval>
    </rerouter>
    <route id="26351520#3_-25413576#5" edges="26351520#3 -25413576#5 -25413576#3 -25413576#2"/>
    <route id="26351520#3_-26351520#3" edges="26351520#3 -26351520#3"/>
    <route id="26351520#3_E4" edges="26351520#3 E4"/>
    <rerouter id="rr_26351520#3" edges="26351520#3">
        <interval begin="0" end="500">
            <routeProbReroute id="26351520#3_-25413576#5" probability="20.0"/>
            <routeProbReroute id="26351520#3_-26351520#3" probability="0"/>
            <routeProbReroute id="26351520#3_E4" probability="30.0"/>
        </interval>
    </rerouter>
    <route id="-26351500#1_26351500#1" edges="-26351500#1 26351500#1 E2"/>
    <route id="26351489#1_-26351489#1" edges="26351489#1 -26351489#1"/>
    <route id="26351500#0_-26351500#0" edges="26351500#0 -26351500#0"/>
    <route id="-26351489#1_26351489#1" edges="-26351489#1 26351489#1 -26351489#1"/>
    <route id="-26351489#1_26351490" edges="-26351489#1 26351490"/>
    <rerouter id="rr_-26351489#1" edges="-26351489#1">
        <interval begin="0" end="500">
            <routeProbReroute id="-26351489#1_26351489#1" probability="0"/>
            <routeProbReroute id="-26351489#1_26351490" probability="20.0"/>
        </interval>
    </rerouter>
    <route id="-26351490_26351489#1" edges="-26351490 26351489#1 -26351489#1"/>
    <route id="-26351490_26351490" edges="-26351490 26351490"/>
    <rerouter id="rr_-26351490" edges="-26351490">
        <interval begin="0" end="500">
            <routeProbReroute id="-26351490_26351489#1" probability="30.0"/>
            <routeProbReroute id="-26351490_26351490" probability="0"/>
        </interval>
    </rerouter>
    <route id="26351490_-26351492#0" edges="26351490 -26351492#0 146505402#1 146505402#2"/>
    <route id="26351490_-E5" edges="26351490 -E5"/>
    <rerouter id="rr_26351490" edges="26351490">
        <interval begin="0" end="500">
            <routeProbReroute id="26351490_-26351492#0" probability="30.0"/>
            <routeProbReroute id="26351490_-E5" probability="20.0"/>
        </interval>
    </rerouter>
    <route id="26351491#1_-26351490" edges="26351491#1 -26351490"/>
    <route id="26351491#1_-E5" edges="26351491#1 -E5"/>
    <rerouter id="rr_26351491#1" edges="26351491#1">
        <interval begin="0" end="500">
            <routeProbReroute id="26351491#1_-26351490" probability="20.0"/>
            <routeProbReroute id="26351491#1_-E5" probability="50.0"/>
        </interval>
    </rerouter>
    <route id="E5_-26351490" edges="E5 -26351490"/>
    <route id="E5_-26351492#0" edges="E5 -26351492#0 146505402#1 146505402#2"/>
    <rerouter id="rr_E5" edges="E5">
        <interval begin="0" end="500">
            <routeProbReroute id="E5_-26351490" probability="30.0"/>
            <routeProbReroute id="E5_-26351492#0" probability="50.0"/>
        </interval>
    </rerouter>
    <route id="-26351500#0_-E1" edges="-26351500#0 -E1"/>
    <route id="-26351500#0_26351500#0" edges="-26351500#0 26351500#0 -26351500#0"/>
    <route id="-26351500#0_E5" edges="-26351500#0 E5"/>
    <rerouter id="rr_-26351500#0" edges="-26351500#0">
        <interval begin="0" end="500">
            <routeProbReroute id="-26351500#0_-E1" probability="20.0"/>
            <routeProbReroute id="-26351500#0_26351500#0" probability="0"/>
            <routeProbReroute id="-26351500#0_E5" probability="30.0"/>
        </interval>
    </rerouter>
    <route id="-E5_-E1" edges="-E5 -E1"/>
    <route id="-E5_26351500#0" edges="-E5 26351500#0 -26351500#0"/>
    <rerouter id="rr_-E5" edges="-E5">
        <interval begin="0" end="500">
            <routeProbReroute id="-E5_-E1" probability="50.0"/>
            <routeProbReroute id="-E5_26351500#0" probability="20.0"/>
        </interval>
    </rerouter>
    <route id="E1_26351500#0" edges="E1 26351500#0 -26351500#0"/>
    <route id="E1_E5" edges="E1 E5"/>
    <rerouter id="rr_E1" edges="E1">
        <interval begin="0" end="500">
            <routeProbReroute id="E1_26351500#0" probability="30.0"/>
            <routeProbReroute id="E1_E5" probability="50.0"/>
        </interval>
    </rerouter>
    <route id="-59472986#1_-26351500#1" edges="-59472986#1 -26351500#1 26351500#1 E2"/>
    <route id="-59472986#1_E2" edges="-59472986#1 E2"/>
    <rerouter id="rr_-59472986#1" edges="-59472986#1">
        <interval begin="0" end="500">
            <routeProbReroute id="-59472986#1_-26351500#1" probability="30.0"/>
            <routeProbReroute id="-59472986#1_E2" probability="50.0"/>
        </interval>
    </rerouter>
    <route id="-E2_-26351500#1" edges="-E2 -26351500#1 26351500#1 E2"/>
    <route id="-E2_59472986#0" edges="-E2 59472986#0 25413576#0"/>
    <rerouter id="rr_-E2" edges="-E2">
        <interval begin="0" end="500">
            <routeProbReroute id="-E2_-26351500#1" probability="20.0"/>
            <routeProbReroute id="-E2_59472986#0" probability="50.0"/>
        </interval>
    </rerouter>
    <route id="26351500#1_E2" edges="26351500#1 E2"/>
    <route id="-26351518#5_-26351507#1" edges="-26351518#5 -26351507#1"/>
    <route id="-26351518#5_26351518#0" edges="-26351518#5 26351518#0"/>
    <rerouter id="rr_-26351518#5" edges="-26351518#5">
        <interval begin="0" end="500">
            <routeProbReroute id="-26351518#5_-26351507#1" probability="30.0"/>
            <routeProbReroute id="-26351518#5_26351518#0" probability="0"/>
        </interval>
    </rerouter>
    <route id="26351507#0_-26351507#1" edges="26351507#0 -26351507#1"/>
    <route id="26351507#0_26351518#0" edges="26351507#0 26351518#0"/>
    <rerouter id="rr_26351507#0" edges="26351507#0">
        <interval begin="0" end="500">
            <routeProbReroute id="26351507#0_-26351507#1" probability="0"/>
            <routeProbReroute id="26351507#0_26351518#0" probability="20.0"/>
        </interval>
    </rerouter>
    <route id="-26351508#2_26351508#1" edges="-26351508#2 26351508#1 -26351508#2"/>
    <route id="26351508#0_-26351508#0" edges="26351508#0 -26351508#0 26351508#0"/>
    <route id="-26351508#0_26351508#0" edges="-26351508#0 26351508#0 -26351508#0"/>
    <route id="26351515_-26351515" edges="26351515 -26351515 26351515"/>
    <route id="26351509#1_-26351511#1" edges="26351509#1 -26351511#1"/>
    <route id="26351509#1_26351509#2" edges="26351509#1 26351509#2"/>
    <route id="26351509#1_26351511#3" edges="26351509#1 26351511#3"/>
    <rerouter id="rr_26351509#1" edges="26351509#1">
        <interval begin="0" end="500">
            <routeProbReroute id="26351509#1_-26351511#1" probability="30.0"/>
            <routeProbReroute id="26351509#1_26351509#2" probability="50.0"/>
            <routeProbReroute id="26351509#1_26351511#3" probability="20.0"/>
        </interval>
    </rerouter>
    <route id="26351511#1_26351509#2" edges="26351511#1 26351509#2"/>
    <route id="26351511#1_26351511#3" edges="26351511#1 26351511#3"/>
    <rerouter id="rr_26351511#1" edges="26351511#1">
        <interval begin="0" end="500">
            <routeProbReroute id="26351511#1_26351509#2" probability="30.0"/>
            <routeProbReroute id="26351511#1_26351511#3" probability="50.0"/>
        </interval>
    </rerouter>
    <route id="-26351520#3_-26351518#5" edges="-26351520#3 -26351518#5"/>
    <route id="-26351520#3_-26351520#2" edges="-26351520#3 -26351520#2"/>
    <route id="-26351520#3_26351520#3" edges="-26351520#3 26351520#3"/>
    <rerouter id="rr_-26351520#3" edges="-26351520#3">
        <interval begin="0" end="500">
            <routeProbReroute id="-26351520#3_-26351518#5" probability="30.0"/>
            <routeProbReroute id="-26351520#3_-26351520#2" probability="50.0"/>
            <routeProbReroute id="-26351520#3_26351520#3" probability="0"/>
        </interval>
    </rerouter>
    <route id="26351518#0_-26351518#5" edges="26351518#0 -26351518#5"/>
    <route id="26351518#0_-26351520#2" edges="26351518#0 -26351520#2"/>
    <route id="26351518#0_26351520#3" edges="26351518#0 26351520#3"/>
    <rerouter id="rr_26351518#0" edges="26351518#0">
        <interval begin="0" end="500">
            <routeProbReroute id="26351518#0_-26351518#5" probability="0"/>
            <routeProbReroute id="26351518#0_-26351520#2" probability="30.0"/>
            <routeProbReroute id="26351518#0_26351520#3" probability="20.0"/>
        </interval>
    </rerouter>
    <route id="26351520#1_-26351518#5" edges="26351520#1 -26351518#5"/>
    <route id="26351520#1_-26351520#2" edges="26351520#1 -26351520#2"/>
    <route id="26351520#1_26351520#3" edges="26351520#1 26351520#3"/>
    <rerouter id="rr_26351520#1" edges="26351520#1">
        <interval begin="0" end="500">
            <routeProbReroute id="26351520#1_-26351518#5" probability="20.0"/>
            <routeProbReroute id="26351520#1_-26351520#2" probability="0"/>
            <routeProbReroute id="26351520#1_26351520#3" probability="50.0"/>
        </interval>
    </rerouter>
    <route id="26351520#2_-26351518#5" edges="26351520#2 -26351518#5"/>
    <route id="26351520#2_-26351520#2" edges="26351520#2 -26351520#2"/>
    <route id="26351520#2_26351520#3" edges="26351520#2 26351520#3"/>
    <rerouter id="rr_26351520#2" edges="26351520#2">
        <interval begin="0" end="500">
            <routeProbReroute id="26351520#2_-26351518#5" probability="20.0"/>
            <routeProbReroute id="26351520#2_-26351520#2" probability="20.0"/>
            <routeProbReroute id="26351520#2_26351520#3" probability="50.0"/>
        </interval>
    </rerouter>
    <route id="-26351520#2_-26351520#0" edges="-26351520#2 -26351520#0 26351520#0"/>
    <route id="-26351520#2_26351520#1" edges="-26351520#2 26351520#1"/>
    <route id="-26351520#2_26351520#2" edges="-26351520#2 26351520#2"/>
    <rerouter id="rr_-26351520#2" edges="-26351520#2">
        <interval begin="0" end="500">
            <routeProbReroute id="-26351520#2_-26351520#0" probability="50.0"/>
            <routeProbReroute id="-26351520#2_26351520#1" probability="0"/>
            <routeProbReroute id="-26351520#2_26351520#2" probability="20.0"/>
        </interval>
    </rerouter>
    <route id="26351520#0_-26351520#0" edges="26351520#0 -26351520#0 26351520#0"/>
    <route id="26351520#0_26351520#1" edges="26351520#0 26351520#1"/>
    <route id="26351520#0_26351520#2" edges="26351520#0 26351520#2"/>
    <rerouter id="rr_26351520#0" edges="26351520#0">
        <interval begin="0" end="500">
            <routeProbReroute id="26351520#0_-26351520#0" probability="0"/>
            <routeProbReroute id="26351520#0_26351520#1" probability="50.0"/>
            <routeProbReroute id="26351520#0_26351520#2" probability="50.0"/>
        </interval>
    </rerouter>
    <route id="159393364#1_-33753312#2" edges="159393364#1 -33753312#2 -25413576#10"/>
    <route id="159393364#1_33753312#3" edges="159393364#1 33753312#3"/>
    <rerouter id="rr_159393364#1" edges="159393364#1">
        <interval begin="0" end="500">
            <routeProbReroute id="159393364#1_-33753312#2" probability="50.0"/>
            <routeProbReroute id="159393364#1_33753312#3" probability="0"/>
        </interval>
    </rerouter>
    <route id="33753312#0_-33753312#2" edges="33753312#0 -33753312#2 -25413576#10"/>
    <route id="33753312#0_33753312#3" edges="33753312#0 33753312#3"/>
    <rerouter id="rr_33753312#0" edges="33753312#0">
        <interval begin="0" end="500">
            <routeProbReroute id="33753312#0_-33753312#2" probability="0"/>
            <routeProbReroute id="33753312#0_33753312#3" probability="50.0"/>
        </interval>
    </rerouter>
    <route id="-E0_-E2" edges="-E0 -E2"/>
    <route id="-E0_E1" edges="-E0 E1"/>
    <rerouter id="rr_-E0" edges="-E0">
        <interval begin="0" end="500">
            <routeProbReroute id="-E0_-E2" probability="50.0"/>
            <routeProbReroute id="-E0_E1" probability="20.0"/>
        </interval>
    </rerouter>
    <route id="-E1_-E2" edges="-E1 -E2"/>
    <route id="-E1_E0" edges="-E1 E0"/>
    <rerouter id="rr_-E1" edges="-E1">
        <interval begin="0" end="500">
            <routeProbReroute id="-E1_-E2" probability="20.0"/>
            <routeProbReroute id="-E1_E0" probability="30.0"/>
        </interval>
    </rerouter>
    <route id="E2_E0" edges="E2 E0"/>
    <route id="E2_E1" edges="E2 E1"/>
    <rerouter id="rr_E2" edges="E2">
        <interval begin="0" end="500">
            <routeProbReroute id="E2_E0" probability="50.0"/>
            <routeProbReroute id="E2_E1" probability="30.0"/>
        </interval>
    </rerouter>
</additional>
