<configuration>
    <input>
        <net-file value="grid.net.xml"/>
        <route-files value="grid.rou.xml"/>
        <additional-files value="rerouter.add.xml"/>
    </input>
    <time>
        <begin value="0"/>
        <end value="10000"/>
    </time>
    <output>
        <fcd-output value="selected_part_cologne.output.xml"/>
    </output>

	<step-length value="0.1"/> 
</configuration>
