<?xml version="1.0" encoding="UTF-8"?>

<!-- generated on 2023-11-23 17:49:21 by Eclipse SUMO netedit Version 1.18.0
<configuration xmlns:xsi="http://www.w3.org/2001/XMLSchema-instance" xsi:noNamespaceSchemaLocation="http://sumo.dlr.de/xsd/neteditConfiguration.xsd">

    <input>
        <sumocfg-file value="C:\Users\adani\OneDrive\Documentos\GitHub\SimulatorSPS\sumo_simulation\Ped_simu_SUMO\ETSI_TR_138_913_V14_3_0_urban.sumocfg"/>
        <additional-files value="C:\Users\adani\OneDrive\Documentos\GitHub\SimulatorSPS\sumo_simulation\Ped_simu_SUMO\ETSI_TR_138_913_V14_3_0_urban.poly.xml"/>
        <route-files value="C:\Users\adani\OneDrive\Documentos\GitHub\SimulatorSPS\sumo_simulation\Ped_simu_SUMO\ETSI_TR_138_913_V14_3_0_urban.rou.xml"/>
        <sumo-net-file value="C:\Users\adani\OneDrive\Documentos\GitHub\SimulatorSPS\sumo_simulation\Ped_simu_SUMO\ETSI_TR_138_913_V14_3_0_urban.net.xml"/>
    </input>

    <output>
        <output-file value="C:\Users\adani\OneDrive\Documentos\GitHub\SimulatorSPS\sumo_simulation\Ped_simu_SUMO\ETSI_TR_138_913_V14_3_0_urban.net.xml"/>
    </output>

    <processing>
        <geometry.min-radius.fix.railways value="false"/>
        <geometry.max-grade.fix value="false"/>
        <offset.disable-normalization value="true"/>
        <lefthand value="0"/>
    </processing>

    <junctions>
        <no-internal-links value="false"/>
        <no-turnarounds value="true"/>
        <junctions.corner-detail value="5"/>
        <junctions.limit-turn-speed value="5.50"/>
        <rectangular-lane-cut value="0"/>
    </junctions>

    <pedestrian>
        <walkingareas value="0"/>
    </pedestrian>

</configuration>
-->

<net version="1.16" junctionCornerDetail="5" limitTurnSpeed="5.50" xmlns:xsi="http://www.w3.org/2001/XMLSchema-instance" xsi:noNamespaceSchemaLocation="http://sumo.dlr.de/xsd/net_file.xsd">

    <location netOffset="0.00,0.00" convBoundary="0.00,0.00,750.00,1299.00" origBoundary="-10000000000.00,-10000000000.00,10000000000.00,10000000000.00" projParameter="!"/>

    <type id="edgeType_0" numLanes="2" speed="16.66" width="7.00" sidewalkWidth="3.00" bikeLaneWidth="1.00"/>
    <type id="edgeType_1"/>

    <edge id=":J1_0" function="internal">
        <lane id=":J1_0_0" index="0" disallow="pedestrian" speed="10.40" length="24.59" width="3.50" shape="-5.25,10.00 -4.30,3.33 -1.44,-1.44 3.33,-4.30 10.00,-5.25"/>
        <lane id=":J1_0_1" index="1" disallow="pedestrian" speed="9.19" length="18.95" width="3.50" shape="-1.75,10.00 -1.02,4.86 1.19,1.19 4.86,-1.02 10.00,-1.75"/>
    </edge>
    <edge id=":J1_2" function="internal">
        <lane id=":J1_2_0" index="0" disallow="pedestrian" speed="6.08" length="7.66" width="3.50" shape="10.00,5.25 7.92,5.55 6.44,6.44 5.55,7.92 5.25,10.00"/>
        <lane id=":J1_2_1" index="1" disallow="pedestrian" speed="7.79" length="13.31" width="3.50" shape="10.00,1.75 6.39,2.27 3.81,3.81 2.27,6.39 1.75,10.00"/>
    </edge>
    <edge id=":J1_w0" function="walkingarea">
        <lane id=":J1_w0_0" index="0" allow="pedestrian" speed="2.78" length="26.16" width="3.00" shape="10.00,-7.00 10.00,-10.00 5.05,-9.21 0.37,-7.04 -3.75,-3.75 -7.04,0.37 -9.21,5.05 -10.00,10.00 -7.00,10.00 -6.53,4.81 -5.11,0.56 -2.75,-2.75 0.56,-5.11 4.81,-6.53"/>
    </edge>
    <edge id=":J1_w1" function="walkingarea">
        <lane id=":J1_w1_0" index="0" allow="pedestrian" speed="2.78" length="2.12" width="3.00" shape="7.00,10.00 10.00,10.00 10.00,7.00 9.08,7.08 8.33,7.33 7.75,7.75 7.33,8.33 7.08,9.08"/>
    </edge>
    <edge id=":J10_0" function="internal">
        <lane id=":J10_0_0" index="0" disallow="pedestrian" speed="6.87" length="5.84" width="3.50" shape="244.75,877.50 244.36,874.77 243.19,872.81 242.50,872.40"/>
    </edge>
    <edge id=":J10_1" function="internal">
        <lane id=":J10_1_0" index="0" disallow="pedestrian" speed="16.67" length="23.00" width="3.50" shape="244.75,877.50 244.75,854.50"/>
        <lane id=":J10_1_1" index="1" disallow="pedestrian" speed="16.67" length="23.00" width="3.50" shape="248.25,877.50 248.25,854.50"/>
    </edge>
    <edge id=":J10_3" function="internal">
        <lane id=":J10_3_0" index="0" disallow="pedestrian" speed="9.73" length="5.86" width="3.50" shape="248.25,877.50 249.08,871.70"/>
    </edge>
    <edge id=":J10_16" function="internal">
        <lane id=":J10_16_0" index="0" disallow="pedestrian" speed="6.87" length="4.24" width="3.50" shape="242.50,872.40 241.23,871.64 238.50,871.25"/>
    </edge>
    <edge id=":J10_17" function="internal">
        <lane id=":J10_17_0" index="0" disallow="pedestrian" speed="9.73" length="15.51" width="3.50" shape="249.08,871.70 251.56,867.56 255.70,865.08 261.50,864.25"/>
    </edge>
    <edge id=":J10_4" function="internal">
        <lane id=":J10_4_0" index="0" disallow="pedestrian" speed="6.87" length="5.84" width="3.50" shape="261.50,871.25 258.77,871.64 256.81,872.81 256.40,873.50"/>
    </edge>
    <edge id=":J10_5" function="internal">
        <lane id=":J10_5_0" index="0" disallow="pedestrian" speed="16.67" length="23.00" width="3.50" shape="261.50,871.25 238.50,871.25"/>
        <lane id=":J10_5_1" index="1" disallow="pedestrian" speed="16.67" length="23.00" width="3.50" shape="261.50,867.75 238.50,867.75"/>
    </edge>
    <edge id=":J10_7" function="internal">
        <lane id=":J10_7_0" index="0" disallow="pedestrian" speed="9.73" length="5.86" width="3.50" shape="261.50,867.75 255.70,866.92"/>
    </edge>
    <edge id=":J10_18" function="internal">
        <lane id=":J10_18_0" index="0" disallow="pedestrian" speed="6.87" length="4.24" width="3.50" shape="256.40,873.50 255.64,874.77 255.25,877.50"/>
    </edge>
    <edge id=":J10_19" function="internal">
        <lane id=":J10_19_0" index="0" disallow="pedestrian" speed="9.73" length="15.51" width="3.50" shape="255.70,866.92 251.56,864.44 249.08,860.30 248.25,854.50"/>
    </edge>
    <edge id=":J10_8" function="internal">
        <lane id=":J10_8_0" index="0" disallow="pedestrian" speed="6.87" length="5.84" width="3.50" shape="255.25,854.50 255.64,857.23 256.81,859.19 257.50,859.60"/>
    </edge>
    <edge id=":J10_9" function="internal">
        <lane id=":J10_9_0" index="0" disallow="pedestrian" speed="16.67" length="23.00" width="3.50" shape="255.25,854.50 255.25,877.50"/>
        <lane id=":J10_9_1" index="1" disallow="pedestrian" speed="16.67" length="23.00" width="3.50" shape="251.75,854.50 251.75,877.50"/>
    </edge>
    <edge id=":J10_11" function="internal">
        <lane id=":J10_11_0" index="0" disallow="pedestrian" speed="9.73" length="5.86" width="3.50" shape="251.75,854.50 250.92,860.30"/>
    </edge>
    <edge id=":J10_20" function="internal">
        <lane id=":J10_20_0" index="0" disallow="pedestrian" speed="6.87" length="4.24" width="3.50" shape="257.50,859.60 258.77,860.36 261.50,860.75"/>
    </edge>
    <edge id=":J10_21" function="internal">
        <lane id=":J10_21_0" index="0" disallow="pedestrian" speed="9.73" length="15.51" width="3.50" shape="250.92,860.30 248.44,864.44 244.30,866.92 238.50,867.75"/>
    </edge>
    <edge id=":J10_12" function="internal">
        <lane id=":J10_12_0" index="0" disallow="pedestrian" speed="6.87" length="5.84" width="3.50" shape="238.50,860.75 241.23,860.36 243.19,859.19 243.60,858.50"/>
    </edge>
    <edge id=":J10_13" function="internal">
        <lane id=":J10_13_0" index="0" disallow="pedestrian" speed="16.67" length="23.00" width="3.50" shape="238.50,860.75 261.50,860.75"/>
        <lane id=":J10_13_1" index="1" disallow="pedestrian" speed="16.67" length="23.00" width="3.50" shape="238.50,864.25 261.50,864.25"/>
    </edge>
    <edge id=":J10_15" function="internal">
        <lane id=":J10_15_0" index="0" disallow="pedestrian" speed="9.73" length="5.86" width="3.50" shape="238.50,864.25 244.30,865.08"/>
    </edge>
    <edge id=":J10_22" function="internal">
        <lane id=":J10_22_0" index="0" disallow="pedestrian" speed="6.87" length="4.24" width="3.50" shape="243.60,858.50 244.36,857.23 244.75,854.50"/>
    </edge>
    <edge id=":J10_23" function="internal">
        <lane id=":J10_23_0" index="0" disallow="pedestrian" speed="9.73" length="15.51" width="3.50" shape="244.30,865.08 248.44,867.56 250.92,871.70 251.75,877.50"/>
    </edge>
    <edge id=":J10_c0" function="crossing" crossingEdges="E18 -E18">
        <lane id=":J10_c0_0" index="0" allow="pedestrian" speed="2.78" length="14.00" width="4.00" shape="257.00,875.50 243.00,875.50"/>
    </edge>
    <edge id=":J10_c1" function="crossing" crossingEdges="E8 -E8">
        <lane id=":J10_c1_0" index="0" allow="pedestrian" speed="2.78" length="14.00" width="4.00" shape="259.50,859.00 259.50,873.00"/>
    </edge>
    <edge id=":J10_c2" function="crossing" crossingEdges="-E17 E17">
        <lane id=":J10_c2_0" index="0" allow="pedestrian" speed="2.78" length="14.00" width="4.00" shape="243.00,856.50 257.00,856.50"/>
    </edge>
    <edge id=":J10_c3" function="crossing" crossingEdges="-E7 E7">
        <lane id=":J10_c3_0" index="0" allow="pedestrian" speed="2.78" length="14.00" width="4.00" shape="240.50,873.00 240.50,859.00"/>
    </edge>
    <edge id=":J10_w0" function="walkingarea">
        <lane id=":J10_w0_0" index="0" allow="pedestrian" speed="2.78" length="3.67" width="4.00" shape="238.50,873.00 238.50,876.00 240.00,877.50 243.00,877.50 242.88,876.13 242.50,875.00 241.88,874.12 241.00,873.50 239.88,873.12"/>
    </edge>
    <edge id=":J10_w1" function="walkingarea">
        <lane id=":J10_w1_0" index="0" allow="pedestrian" speed="2.78" length="3.67" width="4.00" shape="257.00,877.50 260.00,877.50 261.50,876.00 261.50,873.00 260.13,873.13 259.00,873.50 258.12,874.12 257.50,875.00 257.12,876.12"/>
    </edge>
    <edge id=":J10_w2" function="walkingarea">
        <lane id=":J10_w2_0" index="0" allow="pedestrian" speed="2.78" length="3.67" width="4.00" shape="261.50,859.00 261.50,856.00 260.00,854.50 257.00,854.50 257.13,855.88 257.50,857.00 258.12,857.88 259.00,858.50 260.12,858.88"/>
    </edge>
    <edge id=":J10_w3" function="walkingarea">
        <lane id=":J10_w3_0" index="0" allow="pedestrian" speed="2.78" length="3.67" width="4.00" shape="243.00,854.50 240.00,854.50 238.50,856.00 238.50,859.00 239.88,858.88 241.00,858.50 241.88,857.88 242.50,857.00 242.88,855.88"/>
    </edge>
    <edge id=":J11_0" function="internal">
        <lane id=":J11_0_0" index="0" disallow="pedestrian" speed="6.87" length="5.84" width="3.50" shape="494.75,877.50 494.36,874.77 493.19,872.81 492.50,872.40"/>
    </edge>
    <edge id=":J11_1" function="internal">
        <lane id=":J11_1_0" index="0" disallow="pedestrian" speed="16.67" length="23.00" width="3.50" shape="494.75,877.50 494.75,854.50"/>
        <lane id=":J11_1_1" index="1" disallow="pedestrian" speed="16.67" length="23.00" width="3.50" shape="498.25,877.50 498.25,854.50"/>
    </edge>
    <edge id=":J11_3" function="internal">
        <lane id=":J11_3_0" index="0" disallow="pedestrian" speed="9.73" length="5.86" width="3.50" shape="498.25,877.50 499.08,871.70"/>
    </edge>
    <edge id=":J11_16" function="internal">
        <lane id=":J11_16_0" index="0" disallow="pedestrian" speed="6.87" length="4.24" width="3.50" shape="492.50,872.40 491.23,871.64 488.50,871.25"/>
    </edge>
    <edge id=":J11_17" function="internal">
        <lane id=":J11_17_0" index="0" disallow="pedestrian" speed="9.73" length="15.51" width="3.50" shape="499.08,871.70 501.56,867.56 505.70,865.08 511.50,864.25"/>
    </edge>
    <edge id=":J11_4" function="internal">
        <lane id=":J11_4_0" index="0" disallow="pedestrian" speed="6.87" length="5.84" width="3.50" shape="511.50,871.25 508.77,871.64 506.81,872.81 506.40,873.50"/>
    </edge>
    <edge id=":J11_5" function="internal">
        <lane id=":J11_5_0" index="0" disallow="pedestrian" speed="16.67" length="23.00" width="3.50" shape="511.50,871.25 488.50,871.25"/>
        <lane id=":J11_5_1" index="1" disallow="pedestrian" speed="16.67" length="23.00" width="3.50" shape="511.50,867.75 488.50,867.75"/>
    </edge>
    <edge id=":J11_7" function="internal">
        <lane id=":J11_7_0" index="0" disallow="pedestrian" speed="9.73" length="5.86" width="3.50" shape="511.50,867.75 505.70,866.92"/>
    </edge>
    <edge id=":J11_18" function="internal">
        <lane id=":J11_18_0" index="0" disallow="pedestrian" speed="6.87" length="4.24" width="3.50" shape="506.40,873.50 505.64,874.77 505.25,877.50"/>
    </edge>
    <edge id=":J11_19" function="internal">
        <lane id=":J11_19_0" index="0" disallow="pedestrian" speed="9.73" length="15.51" width="3.50" shape="505.70,866.92 501.56,864.44 499.08,860.30 498.25,854.50"/>
    </edge>
    <edge id=":J11_8" function="internal">
        <lane id=":J11_8_0" index="0" disallow="pedestrian" speed="6.87" length="5.84" width="3.50" shape="505.25,854.50 505.64,857.23 506.81,859.19 507.50,859.60"/>
    </edge>
    <edge id=":J11_9" function="internal">
        <lane id=":J11_9_0" index="0" disallow="pedestrian" speed="16.67" length="23.00" width="3.50" shape="505.25,854.50 505.25,877.50"/>
        <lane id=":J11_9_1" index="1" disallow="pedestrian" speed="16.67" length="23.00" width="3.50" shape="501.75,854.50 501.75,877.50"/>
    </edge>
    <edge id=":J11_11" function="internal">
        <lane id=":J11_11_0" index="0" disallow="pedestrian" speed="9.73" length="5.86" width="3.50" shape="501.75,854.50 500.92,860.30"/>
    </edge>
    <edge id=":J11_20" function="internal">
        <lane id=":J11_20_0" index="0" disallow="pedestrian" speed="6.87" length="4.24" width="3.50" shape="507.50,859.60 508.77,860.36 511.50,860.75"/>
    </edge>
    <edge id=":J11_21" function="internal">
        <lane id=":J11_21_0" index="0" disallow="pedestrian" speed="9.73" length="15.51" width="3.50" shape="500.92,860.30 498.44,864.44 494.30,866.92 488.50,867.75"/>
    </edge>
    <edge id=":J11_12" function="internal">
        <lane id=":J11_12_0" index="0" disallow="pedestrian" speed="6.87" length="5.84" width="3.50" shape="488.50,860.75 491.23,860.36 493.19,859.19 493.60,858.50"/>
    </edge>
    <edge id=":J11_13" function="internal">
        <lane id=":J11_13_0" index="0" disallow="pedestrian" speed="16.67" length="23.00" width="3.50" shape="488.50,860.75 511.50,860.75"/>
        <lane id=":J11_13_1" index="1" disallow="pedestrian" speed="16.67" length="23.00" width="3.50" shape="488.50,864.25 511.50,864.25"/>
    </edge>
    <edge id=":J11_15" function="internal">
        <lane id=":J11_15_0" index="0" disallow="pedestrian" speed="9.73" length="5.86" width="3.50" shape="488.50,864.25 494.30,865.08"/>
    </edge>
    <edge id=":J11_22" function="internal">
        <lane id=":J11_22_0" index="0" disallow="pedestrian" speed="6.87" length="4.24" width="3.50" shape="493.60,858.50 494.36,857.23 494.75,854.50"/>
    </edge>
    <edge id=":J11_23" function="internal">
        <lane id=":J11_23_0" index="0" disallow="pedestrian" speed="9.73" length="15.51" width="3.50" shape="494.30,865.08 498.44,867.56 500.92,871.70 501.75,877.50"/>
    </edge>
    <edge id=":J11_c0" function="crossing" crossingEdges="E21 -E21">
        <lane id=":J11_c0_0" index="0" allow="pedestrian" speed="2.78" length="14.00" width="4.00" shape="507.00,875.50 493.00,875.50"/>
    </edge>
    <edge id=":J11_c1" function="crossing" crossingEdges="E9 -E9">
        <lane id=":J11_c1_0" index="0" allow="pedestrian" speed="2.78" length="14.00" width="4.00" shape="509.50,859.00 509.50,873.00"/>
    </edge>
    <edge id=":J11_c2" function="crossing" crossingEdges="-E20 E20">
        <lane id=":J11_c2_0" index="0" allow="pedestrian" speed="2.78" length="14.00" width="4.00" shape="493.00,856.50 507.00,856.50"/>
    </edge>
    <edge id=":J11_c3" function="crossing" crossingEdges="-E8 E8">
        <lane id=":J11_c3_0" index="0" allow="pedestrian" speed="2.78" length="14.00" width="4.00" shape="490.50,873.00 490.50,859.00"/>
    </edge>
    <edge id=":J11_w0" function="walkingarea">
        <lane id=":J11_w0_0" index="0" allow="pedestrian" speed="2.78" length="3.67" width="4.00" shape="488.50,873.00 488.50,876.00 490.00,877.50 493.00,877.50 492.88,876.13 492.50,875.00 491.88,874.12 491.00,873.50 489.88,873.12"/>
    </edge>
    <edge id=":J11_w1" function="walkingarea">
        <lane id=":J11_w1_0" index="0" allow="pedestrian" speed="2.78" length="3.67" width="4.00" shape="507.00,877.50 510.00,877.50 511.50,876.00 511.50,873.00 510.13,873.13 509.00,873.50 508.12,874.12 507.50,875.00 507.12,876.12"/>
    </edge>
    <edge id=":J11_w2" function="walkingarea">
        <lane id=":J11_w2_0" index="0" allow="pedestrian" speed="2.78" length="3.67" width="4.00" shape="511.50,859.00 511.50,856.00 510.00,854.50 507.00,854.50 507.13,855.88 507.50,857.00 508.12,857.88 509.00,858.50 510.12,858.88"/>
    </edge>
    <edge id=":J11_w3" function="walkingarea">
        <lane id=":J11_w3_0" index="0" allow="pedestrian" speed="2.78" length="3.67" width="4.00" shape="493.00,854.50 490.00,854.50 488.50,856.00 488.50,859.00 489.88,858.88 491.00,858.50 491.88,857.88 492.50,857.00 492.88,855.88"/>
    </edge>
    <edge id=":J12_0" function="internal">
        <lane id=":J12_0_0" index="0" disallow="pedestrian" speed="6.87" length="5.84" width="3.50" shape="744.75,877.50 744.36,874.77 743.19,872.81 742.50,872.40"/>
    </edge>
    <edge id=":J12_1" function="internal">
        <lane id=":J12_1_0" index="0" disallow="pedestrian" speed="16.67" length="23.00" width="3.50" shape="744.75,877.50 744.75,854.50"/>
        <lane id=":J12_1_1" index="1" disallow="pedestrian" speed="16.67" length="23.00" width="3.50" shape="748.25,877.50 748.25,854.50"/>
    </edge>
    <edge id=":J12_8" function="internal">
        <lane id=":J12_8_0" index="0" disallow="pedestrian" speed="6.87" length="4.24" width="3.50" shape="742.50,872.40 741.23,871.64 738.50,871.25"/>
    </edge>
    <edge id=":J12_3" function="internal">
        <lane id=":J12_3_0" index="0" disallow="pedestrian" speed="16.67" length="23.00" width="3.50" shape="755.25,854.50 755.25,877.50"/>
        <lane id=":J12_3_1" index="1" disallow="pedestrian" speed="16.67" length="23.00" width="3.50" shape="751.75,854.50 751.75,877.50"/>
    </edge>
    <edge id=":J12_5" function="internal">
        <lane id=":J12_5_0" index="0" disallow="pedestrian" speed="9.73" length="5.86" width="3.50" shape="751.75,854.50 750.92,860.30"/>
    </edge>
    <edge id=":J12_9" function="internal">
        <lane id=":J12_9_0" index="0" disallow="pedestrian" speed="9.73" length="15.51" width="3.50" shape="750.92,860.30 748.44,864.44 744.30,866.92 738.50,867.75"/>
    </edge>
    <edge id=":J12_6" function="internal">
        <lane id=":J12_6_0" index="0" disallow="pedestrian" speed="6.87" length="5.84" width="3.50" shape="738.50,860.75 741.23,860.36 743.19,859.19 743.60,858.50"/>
    </edge>
    <edge id=":J12_7" function="internal">
        <lane id=":J12_7_0" index="0" disallow="pedestrian" speed="9.73" length="17.33" width="3.50" shape="738.50,864.25 744.30,865.08 748.44,867.56 750.92,871.70 751.18,873.50"/>
    </edge>
    <edge id=":J12_10" function="internal">
        <lane id=":J12_10_0" index="0" disallow="pedestrian" speed="6.87" length="4.24" width="3.50" shape="743.60,858.50 744.36,857.23 744.75,854.50"/>
    </edge>
    <edge id=":J12_11" function="internal">
        <lane id=":J12_11_0" index="0" disallow="pedestrian" speed="9.73" length="4.04" width="3.50" shape="751.18,873.50 751.75,877.50"/>
    </edge>
    <edge id=":J12_c0" function="crossing" crossingEdges="E24 -E24">
        <lane id=":J12_c0_0" index="0" allow="pedestrian" speed="2.78" length="14.00" width="4.00" shape="757.00,875.50 743.00,875.50"/>
    </edge>
    <edge id=":J12_c1" function="crossing" crossingEdges="-E23 E23">
        <lane id=":J12_c1_0" index="0" allow="pedestrian" speed="2.78" length="14.00" width="4.00" shape="743.00,856.50 757.00,856.50"/>
    </edge>
    <edge id=":J12_c2" function="crossing" crossingEdges="-E9 E9">
        <lane id=":J12_c2_0" index="0" allow="pedestrian" speed="2.78" length="14.00" width="4.00" shape="740.50,873.00 740.50,859.00"/>
    </edge>
    <edge id=":J12_w0" function="walkingarea">
        <lane id=":J12_w0_0" index="0" allow="pedestrian" speed="2.78" length="3.67" width="4.00" shape="738.50,873.00 738.50,876.00 740.00,877.50 743.00,877.50 742.88,876.13 742.50,875.00 741.88,874.12 741.00,873.50 739.88,873.12"/>
    </edge>
    <edge id=":J12_w1" function="walkingarea">
        <lane id=":J12_w1_0" index="0" allow="pedestrian" speed="2.78" length="14.85" width="4.00" shape="757.00,873.50 757.00,877.50 760.00,877.50 760.00,854.50 757.00,854.50 757.00,858.50"/>
    </edge>
    <edge id=":J12_w2" function="walkingarea">
        <lane id=":J12_w2_0" index="0" allow="pedestrian" speed="2.78" length="3.67" width="4.00" shape="743.00,854.50 740.00,854.50 738.50,856.00 738.50,859.00 739.88,858.88 741.00,858.50 741.88,857.88 742.50,857.00 742.88,855.88"/>
    </edge>
    <edge id=":J13_0" function="internal">
        <lane id=":J13_0_0" index="0" disallow="pedestrian" speed="10.40" length="24.59" width="3.50" shape="10.00,1304.25 3.33,1303.30 -1.44,1300.44 -4.30,1295.67 -5.25,1289.00"/>
        <lane id=":J13_0_1" index="1" disallow="pedestrian" speed="9.19" length="18.95" width="3.50" shape="10.00,1300.75 4.86,1300.02 1.19,1297.81 -1.02,1294.14 -1.75,1289.00"/>
    </edge>
    <edge id=":J13_2" function="internal">
        <lane id=":J13_2_0" index="0" disallow="pedestrian" speed="6.08" length="7.66" width="3.50" shape="5.25,1289.00 5.55,1291.08 6.44,1292.56 7.92,1293.45 10.00,1293.75"/>
        <lane id=":J13_2_1" index="1" disallow="pedestrian" speed="7.79" length="13.31" width="3.50" shape="1.75,1289.00 2.27,1292.61 3.81,1295.19 6.39,1296.73 10.00,1297.25"/>
    </edge>
    <edge id=":J13_w0" function="walkingarea">
        <lane id=":J13_w0_0" index="0" allow="pedestrian" speed="2.78" length="26.16" width="3.00" shape="-7.00,1289.00 -10.00,1289.00 -9.21,1293.95 -7.04,1298.63 -3.75,1302.75 0.37,1306.04 5.05,1308.21 10.00,1309.00 10.00,1306.00 4.81,1305.53 0.56,1304.11 -2.75,1301.75 -5.11,1298.44 -6.53,1294.19"/>
    </edge>
    <edge id=":J13_w1" function="walkingarea">
        <lane id=":J13_w1_0" index="0" allow="pedestrian" speed="2.78" length="2.12" width="3.00" shape="10.00,1292.00 10.00,1289.00 7.00,1289.00 7.08,1289.92 7.33,1290.67 7.75,1291.25 8.33,1291.67 9.08,1291.92"/>
    </edge>
    <edge id=":J14_0" function="internal">
        <lane id=":J14_0_0" index="0" disallow="pedestrian" speed="16.67" length="23.00" width="3.50" shape="261.50,1304.25 238.50,1304.25"/>
        <lane id=":J14_0_1" index="1" disallow="pedestrian" speed="16.67" length="23.00" width="3.50" shape="261.50,1300.75 238.50,1300.75"/>
    </edge>
    <edge id=":J14_2" function="internal">
        <lane id=":J14_2_0" index="0" disallow="pedestrian" speed="9.73" length="5.86" width="3.50" shape="261.50,1300.75 255.70,1299.92"/>
    </edge>
    <edge id=":J14_8" function="internal">
        <lane id=":J14_8_0" index="0" disallow="pedestrian" speed="9.73" length="15.51" width="3.50" shape="255.70,1299.92 251.56,1297.44 249.08,1293.30 248.25,1287.50"/>
    </edge>
    <edge id=":J14_3" function="internal">
        <lane id=":J14_3_0" index="0" disallow="pedestrian" speed="6.87" length="5.84" width="3.50" shape="255.25,1287.50 255.64,1290.23 256.81,1292.19 257.50,1292.60"/>
    </edge>
    <edge id=":J14_4" function="internal">
        <lane id=":J14_4_0" index="0" disallow="pedestrian" speed="9.73" length="17.33" width="3.50" shape="251.75,1287.50 250.92,1293.30 248.44,1297.44 244.30,1299.92 242.50,1300.18"/>
    </edge>
    <edge id=":J14_9" function="internal">
        <lane id=":J14_9_0" index="0" disallow="pedestrian" speed="6.87" length="4.24" width="3.50" shape="257.50,1292.60 258.77,1293.36 261.50,1293.75"/>
    </edge>
    <edge id=":J14_10" function="internal">
        <lane id=":J14_10_0" index="0" disallow="pedestrian" speed="9.73" length="4.04" width="3.50" shape="242.50,1300.18 238.50,1300.75"/>
    </edge>
    <edge id=":J14_5" function="internal">
        <lane id=":J14_5_0" index="0" disallow="pedestrian" speed="6.87" length="5.84" width="3.50" shape="238.50,1293.75 241.23,1293.36 243.19,1292.19 243.60,1291.50"/>
    </edge>
    <edge id=":J14_6" function="internal">
        <lane id=":J14_6_0" index="0" disallow="pedestrian" speed="16.67" length="23.00" width="3.50" shape="238.50,1293.75 261.50,1293.75"/>
        <lane id=":J14_6_1" index="1" disallow="pedestrian" speed="16.67" length="23.00" width="3.50" shape="238.50,1297.25 261.50,1297.25"/>
    </edge>
    <edge id=":J14_11" function="internal">
        <lane id=":J14_11_0" index="0" disallow="pedestrian" speed="6.87" length="4.24" width="3.50" shape="243.60,1291.50 244.36,1290.23 244.75,1287.50"/>
    </edge>
    <edge id=":J14_c0" function="crossing" crossingEdges="E11 -E11">
        <lane id=":J14_c0_0" index="0" allow="pedestrian" speed="2.78" length="14.00" width="4.00" shape="259.50,1292.00 259.50,1306.00"/>
    </edge>
    <edge id=":J14_c1" function="crossing" crossingEdges="-E18 E18">
        <lane id=":J14_c1_0" index="0" allow="pedestrian" speed="2.78" length="14.00" width="4.00" shape="243.00,1289.50 257.00,1289.50"/>
    </edge>
    <edge id=":J14_c2" function="crossing" crossingEdges="-E10 E10">
        <lane id=":J14_c2_0" index="0" allow="pedestrian" speed="2.78" length="14.00" width="4.00" shape="240.50,1306.00 240.50,1292.00"/>
    </edge>
    <edge id=":J14_w0" function="walkingarea">
        <lane id=":J14_w0_0" index="0" allow="pedestrian" speed="2.78" length="14.85" width="4.00" shape="242.50,1306.00 238.50,1306.00 238.50,1309.00 261.50,1309.00 261.50,1306.00 257.50,1306.00"/>
    </edge>
    <edge id=":J14_w1" function="walkingarea">
        <lane id=":J14_w1_0" index="0" allow="pedestrian" speed="2.78" length="3.67" width="4.00" shape="261.50,1292.00 261.50,1289.00 260.00,1287.50 257.00,1287.50 257.13,1288.88 257.50,1290.00 258.12,1290.88 259.00,1291.50 260.12,1291.88"/>
    </edge>
    <edge id=":J14_w2" function="walkingarea">
        <lane id=":J14_w2_0" index="0" allow="pedestrian" speed="2.78" length="3.67" width="4.00" shape="243.00,1287.50 240.00,1287.50 238.50,1289.00 238.50,1292.00 239.88,1291.88 241.00,1291.50 241.88,1290.88 242.50,1290.00 242.88,1288.88"/>
    </edge>
    <edge id=":J15_0" function="internal">
        <lane id=":J15_0_0" index="0" disallow="pedestrian" speed="16.67" length="23.00" width="3.50" shape="511.50,1304.25 488.50,1304.25"/>
        <lane id=":J15_0_1" index="1" disallow="pedestrian" speed="16.67" length="23.00" width="3.50" shape="511.50,1300.75 488.50,1300.75"/>
    </edge>
    <edge id=":J15_2" function="internal">
        <lane id=":J15_2_0" index="0" disallow="pedestrian" speed="9.73" length="5.86" width="3.50" shape="511.50,1300.75 505.70,1299.92"/>
    </edge>
    <edge id=":J15_8" function="internal">
        <lane id=":J15_8_0" index="0" disallow="pedestrian" speed="9.73" length="15.51" width="3.50" shape="505.70,1299.92 501.56,1297.44 499.08,1293.30 498.25,1287.50"/>
    </edge>
    <edge id=":J15_3" function="internal">
        <lane id=":J15_3_0" index="0" disallow="pedestrian" speed="6.87" length="5.84" width="3.50" shape="505.25,1287.50 505.64,1290.23 506.81,1292.19 507.50,1292.60"/>
    </edge>
    <edge id=":J15_4" function="internal">
        <lane id=":J15_4_0" index="0" disallow="pedestrian" speed="9.73" length="17.33" width="3.50" shape="501.75,1287.50 500.92,1293.30 498.44,1297.44 494.30,1299.92 492.50,1300.18"/>
    </edge>
    <edge id=":J15_9" function="internal">
        <lane id=":J15_9_0" index="0" disallow="pedestrian" speed="6.87" length="4.24" width="3.50" shape="507.50,1292.60 508.77,1293.36 511.50,1293.75"/>
    </edge>
    <edge id=":J15_10" function="internal">
        <lane id=":J15_10_0" index="0" disallow="pedestrian" speed="9.73" length="4.04" width="3.50" shape="492.50,1300.18 488.50,1300.75"/>
    </edge>
    <edge id=":J15_5" function="internal">
        <lane id=":J15_5_0" index="0" disallow="pedestrian" speed="6.87" length="5.84" width="3.50" shape="488.50,1293.75 491.23,1293.36 493.19,1292.19 493.60,1291.50"/>
    </edge>
    <edge id=":J15_6" function="internal">
        <lane id=":J15_6_0" index="0" disallow="pedestrian" speed="16.67" length="23.00" width="3.50" shape="488.50,1293.75 511.50,1293.75"/>
        <lane id=":J15_6_1" index="1" disallow="pedestrian" speed="16.67" length="23.00" width="3.50" shape="488.50,1297.25 511.50,1297.25"/>
    </edge>
    <edge id=":J15_11" function="internal">
        <lane id=":J15_11_0" index="0" disallow="pedestrian" speed="6.87" length="4.24" width="3.50" shape="493.60,1291.50 494.36,1290.23 494.75,1287.50"/>
    </edge>
    <edge id=":J15_c0" function="crossing" crossingEdges="E12 -E12">
        <lane id=":J15_c0_0" index="0" allow="pedestrian" speed="2.78" length="14.00" width="4.00" shape="509.50,1292.00 509.50,1306.00"/>
    </edge>
    <edge id=":J15_c1" function="crossing" crossingEdges="-E21 E21">
        <lane id=":J15_c1_0" index="0" allow="pedestrian" speed="2.78" length="14.00" width="4.00" shape="493.00,1289.50 507.00,1289.50"/>
    </edge>
    <edge id=":J15_c2" function="crossing" crossingEdges="-E11 E11">
        <lane id=":J15_c2_0" index="0" allow="pedestrian" speed="2.78" length="14.00" width="4.00" shape="490.50,1306.00 490.50,1292.00"/>
    </edge>
    <edge id=":J15_w0" function="walkingarea">
        <lane id=":J15_w0_0" index="0" allow="pedestrian" speed="2.78" length="14.85" width="4.00" shape="492.50,1306.00 488.50,1306.00 488.50,1309.00 511.50,1309.00 511.50,1306.00 507.50,1306.00"/>
    </edge>
    <edge id=":J15_w1" function="walkingarea">
        <lane id=":J15_w1_0" index="0" allow="pedestrian" speed="2.78" length="3.67" width="4.00" shape="511.50,1292.00 511.50,1289.00 510.00,1287.50 507.00,1287.50 507.13,1288.88 507.50,1290.00 508.12,1290.88 509.00,1291.50 510.12,1291.88"/>
    </edge>