<?xml version="1.0" encoding="UTF-8"?>

<!-- generated on 2023-11-23 17:49:21 by Eclipse SUMO netedit Version 1.18.0
-->

<additional xmlns:xsi="http://www.w3.org/2001/XMLSchema-instance" xsi:noNamespaceSchemaLocation="http://sumo.dlr.de/xsd/additional_file.xsd">
    <!-- Shapes -->
    <poly id="po_0" color="red" fill="1" layer="1.00" shape="262.490000,420.330000 262.490000,12.330000 487.490000,12.330000 487.490000,420.330000 326.350000,420.330000 262.490000,420.330000"/>
    <poly id="po_1" color="red" fill="1" layer="1.00" shape="12.410000,853.580000 12.410000,445.580000 237.410000,445.580000 237.410000,853.580000 76.270000,853.580000 12.410000,853.580000"/>
    <poly id="po_2" color="red" fill="1" layer="1.00" shape="262.570000,853.420000 262.570000,445.420000 487.570000,445.420000 487.570000,853.420000 326.430000,853.420000 262.570000,853.420000"/>
    <poly id="po_3" color="red" fill="1" layer="1.00" shape="512.270000,420.480000 512.270000,12.480000 737.270000,12.480000 737.270000,420.480000 576.130000,420.480000 512.270000,420.480000"/>
    <poly id="po_4" color="red" fill="1" layer="1.00" shape="512.570000,853.080000 512.570000,445.080000 737.570000,445.080000 737.570000,853.080000 576.430000,853.080000 512.570000,853.080000"/>
    <poly id="po_5" color="red" fill="1" layer="1.00" shape="511.930000,1286.830000 511.930000,878.830000 736.930000,878.830000 736.930000,1286.830000 575.790000,1286.830000 511.930000,1286.830000"/>
    <poly id="po_6" color="red" fill="1" layer="1.00" shape="12.710000,1286.870000 12.710000,878.870000 237.710000,878.870000 237.710000,1286.870000 76.570000,1286.870000 12.710000,1286.870000"/>
    <poly id="po_7" color="red" fill="1" layer="1.00" shape="262.560000,1286.740000 262.560000,878.740000 487.560000,878.740000 487.560000,1286.740000 326.420000,1286.740000 262.560000,1286.740000"/>
    <poly id="po_8" color="red" fill="1" layer="1.00" shape="12.000000,420.000000 12.000000,12.000000 237.000000,12.000000 237.000000,420.000000 75.860000,420.000000 12.000000,420.000000"/>
</additional>
