<?xml version="1.0" encoding="UTF-8"?>

<!-- generated on 03-10-2023 15:35:10 by Netedit Version 0.30.0
<?xml version="1.0" encoding="UTF-8"?>

<configuration xmlns:xsi="http://www.w3.org/2001/XMLSchema-instance" xsi:noNamespaceSchemaLocation="http://sumo.dlr.de/xsd/netconvertConfiguration.xsd">

    <input>
        <sumo-net-file value="C:\Users\adani\OneDrive\Documentos\GitHub\SimulatorSPS\sumo_simulation\Ped_simu_SUMO\heterogeneous_ped.net.xml"/>
    </input>

    <output>
        <output-file value="C:\Users\adani\OneDrive\Documentos\GitHub\SimulatorSPS\sumo_simulation\Ped_simu_SUMO\heterogeneous_ped.net.xml"/>
    </output>

    <processing>
        <no-internal-links value="false"/>
        <no-turnarounds value="true"/>
        <offset.disable-normalization value="true"/>
        <lefthand value="false"/>
        <junctions.corner-detail value="0"/>
        <rectangular-lane-cut value="false"/>
    </processing>

    <visualisation>
        <registry-viewport value="true"/>
    </visualisation>

</configuration>
-->

<net version="0.27" xmlns:xsi="http://www.w3.org/2001/XMLSchema-instance" xsi:noNamespaceSchemaLocation="http://sumo.dlr.de/xsd/net_file.xsd">

    <location netOffset="0.00,0.00" convBoundary="0.00,0.00,400.00,404.10" origBoundary="0.00,0.00,400.00,400.00" projParameter="!"/>

    <type id="edgeType_0"/>

    <edge id=":0/0_0" function="internal">
        <lane id=":0/0_0_0" index="0" speed="13.90" length="3.20" shape="-4.95,8.15 -4.82,7.25"/>
        <lane id=":0/0_0_1" index="1" speed="13.90" length="3.20" shape="-1.65,8.15 -1.04,3.86 -0.44,2.87"/>
    </edge>
    <edge id=":0/0_4" function="internal">
        <lane id=":0/0_4_0" index="0" speed="13.90" length="20.22" shape="-4.82,7.25 -4.13,2.42 -1.68,-1.67 2.42,-4.13 8.15,-4.95"/>
    </edge>
    <edge id=":0/0_5" function="internal">
        <lane id=":0/0_5_0" index="0" speed="13.90" length="10.32" shape="-0.44,2.87 0.80,0.80 3.86,-1.04 8.15,-1.65"/>
    </edge>
    <edge id=":0/0_2" function="internal">
        <lane id=":0/0_2_0" index="0" speed="13.90" length="3.04" shape="8.15,4.95 6.75,5.15 5.75,5.75 5.15,6.75 4.95,8.15"/>
        <lane id=":0/0_2_1" index="1" speed="13.90" length="3.04" shape="8.15,1.65 7.25,1.78"/>
    </edge>
    <edge id=":0/0_6" function="internal">
        <lane id=":0/0_6_0" index="0" speed="13.90" length="9.57" shape="7.25,1.78 5.31,2.06 3.28,3.28 2.06,5.31 1.65,8.15"/>
    </edge>
    <edge id=":0/0_c0" function="crossing" crossingEdges="1/0to0/0 0/1to0/0">
        <lane id=":0/0_c0_0" index="0" allow="pedestrian" speed="1.00" length="14.09" width="4.00" shape="6.15,0.05 -6.55,6.15"/>
    </edge>
    <edge id=":0/0_c1" function="crossing" crossingEdges="0/0to1/0 0/1to0/0">
        <lane id=":0/0_c1_0" index="0" allow="pedestrian" speed="1.00" length="17.96" width="4.00" shape="6.15,-6.55 -6.55,6.15"/>
    </edge>
    <edge id=":0/0_c2" function="crossing" crossingEdges="1/0to0/0 0/0to0/1">
        <lane id=":0/0_c2_0" index="0" allow="pedestrian" speed="1.00" length="8.63" width="4.00" shape="6.15,0.05 0.05,6.15"/>
    </edge>
    <edge id=":0/0_c3" function="crossing" crossingEdges="0/0to1/0 0/0to0/1">
        <lane id=":0/0_c3_0" index="0" allow="pedestrian" speed="1.00" length="14.09" width="4.00" shape="6.15,-6.55 0.05,6.15"/>
    </edge>
    <edge id=":0/0_w0" function="walkingarea">
        <lane id=":0/0_w0_0" index="0" allow="pedestrian" speed="1.00" length="14.80" width="3.20" shape="-8.15,8.15 -6.65,8.15 -6.55,8.15 -3.35,8.15 -3.25,8.15 -0.05,8.15 0.05,8.15 3.25,8.15 3.35,8.15 6.55,8.15 6.65,8.15 8.15,8.15"/>
    </edge>
    <edge id=":0/0_w1" function="walkingarea">
        <lane id=":0/0_w1_0" index="0" allow="pedestrian" speed="1.00" length="14.80" width="3.20" shape="8.15,8.15 8.15,6.65 8.15,6.55 8.15,3.35 8.15,3.25 8.15,0.05 8.15,-0.05 8.15,-3.25 8.15,-3.35 8.15,-6.55 8.15,-6.65 8.15,-8.15"/>
    </edge>
    <edge id=":0/0_w2" function="walkingarea">
        <lane id=":0/0_w2_0" index="0" allow="pedestrian" speed="1.00" length="17.96" width="4.00" shape="-7.42,4.35 -5.68,7.95 7.95,-5.68 4.35,-7.42"/>
    </edge>
    <edge id=":0/0_w3" function="walkingarea">
        <lane id=":0/0_w3_0" index="0" allow="pedestrian" speed="1.00" length="14.09" width="4.00" shape="-7.96,4.74 -5.14,7.56 7.02,1.85 5.28,-1.75"/>
    </edge>
    <edge id=":0/0_w4" function="walkingarea">
        <lane id=":0/0_w4_0" index="0" allow="pedestrian" speed="1.00" length="14.09" width="4.00" shape="-1.36,4.74 1.46,7.56 7.56,-5.14 4.74,-7.96"/>
    </edge>
    <edge id=":0/0_w5" function="walkingarea">
        <lane id=":0/0_w5_0" index="0" allow="pedestrian" speed="1.00" length="8.63" width="4.00" shape="-1.75,5.28 1.85,7.02 7.56,1.46 4.74,-1.36"/>
    </edge>
    <edge id=":0/1_0" function="internal">
        <lane id=":0/1_0_0" index="0" speed="13.90" length="19.30" shape="-4.95,209.65 -4.95,190.35"/>
        <lane id=":0/1_0_1" index="1" speed="13.90" length="19.30" shape="-1.65,209.65 -1.65,190.35"/>
    </edge>
    <edge id=":0/1_2" function="internal">
        <lane id=":0/1_2_0" index="0" speed="13.90" length="12.66" shape="-1.65,209.65 -0.94,204.71 1.17,201.17 4.22,199.35"/>
    </edge>
    <edge id=":0/1_9" function="internal">
        <lane id=":0/1_9_0" index="0" speed="13.90" length="5.56" shape="4.22,199.35 4.71,199.06 9.65,198.35"/>
    </edge>
    <edge id=":0/1_3" function="internal">
        <lane id=":0/1_3_0" index="0" speed="13.90" length="4.24" shape="9.65,204.95 7.59,205.24 6.13,206.12 5.24,207.59 4.95,209.65"/>
        <lane id=":0/1_3_1" index="1" speed="13.90" length="4.24" shape="9.65,201.65 8.75,201.78"/>
    </edge>
    <edge id=":0/1_5" function="internal">
        <lane id=":0/1_5_0" index="0" speed="13.90" length="8.21" shape="9.65,201.65 4.71,200.94 1.95,199.29"/>
    </edge>
    <edge id=":0/1_10" function="internal">
        <lane id=":0/1_10_0" index="0" speed="13.90" length="11.99" shape="8.75,201.78 6.15,202.15 3.65,203.65 2.15,206.15 1.65,209.65"/>
    </edge>
    <edge id=":0/1_11" function="internal">
        <lane id=":0/1_11_0" index="0" speed="13.90" length="10.02" shape="1.95,199.29 1.17,198.83 -0.94,195.29 -1.65,190.35"/>
    </edge>
    <edge id=":0/1_6" function="internal">
        <lane id=":0/1_6_0" index="0" speed="13.90" length="7.58" shape="4.95,190.35 5.24,192.41 6.12,193.88 7.59,194.76 9.65,195.05"/>
    </edge>
    <edge id=":0/1_7" function="internal">
        <lane id=":0/1_7_0" index="0" speed="13.90" length="19.30" shape="4.95,190.35 4.95,209.65"/>
        <lane id=":0/1_7_1" index="1" speed="13.90" length="19.30" shape="1.65,190.35 1.65,209.65"/>
    </edge>
    <edge id=":0/1_c0" function="crossing" crossingEdges="0/2to0/1 0/1to0/0">
        <lane id=":0/1_c0_0" index="0" allow="pedestrian" speed="1.00" length="15.30" width="4.00" shape="-0.05,207.65 -0.05,192.35"/>
    </edge>
    <edge id=":0/1_c1" function="crossing" crossingEdges="0/0to0/1 0/1to0/2">
        <lane id=":0/1_c1_0" index="0" allow="pedestrian" speed="1.00" length="15.30" width="4.00" shape="0.05,192.35 0.05,207.65"/>
    </edge>
    <edge id=":0/1_c2" function="crossing" crossingEdges="1/1to0/1 0/1to0/2">
        <lane id=":0/1_c2_0" index="0" allow="pedestrian" speed="1.00" length="10.75" width="4.00" shape="7.65,200.05 0.05,207.65"/>
    </edge>
    <edge id=":0/1_c3" function="crossing" crossingEdges="0/0to0/1 0/1to1/1">
        <lane id=":0/1_c3_0" index="0" allow="pedestrian" speed="1.00" length="10.75" width="4.00" shape="0.05,192.35 7.65,199.95"/>
    </edge>
    <edge id=":0/1_w0" function="walkingarea">
        <lane id=":0/1_w0_0" index="0" allow="pedestrian" speed="1.00" length="14.80" width="3.20" shape="-8.15,209.65 -6.65,209.65 -6.55,209.65 -3.35,209.65 -3.25,209.65 -0.05,209.65 0.05,209.65 3.25,209.65 3.35,209.65 6.55,209.65 6.65,209.65 8.15,209.65"/>
    </edge>
    <edge id=":0/1_w1" function="walkingarea">
        <lane id=":0/1_w1_0" index="0" allow="pedestrian" speed="1.00" length="14.80" width="3.20" shape="9.65,208.15 9.65,206.65 9.65,206.55 9.65,203.35 9.65,203.25 9.65,200.05 9.65,199.95 9.65,196.75 9.65,196.65 9.65,193.45 9.65,193.35 9.65,191.85"/>
    </edge>
    <edge id=":0/1_w2" function="walkingarea">
        <lane id=":0/1_w2_0" index="0" allow="pedestrian" speed="1.00" length="14.80" width="3.20" shape="8.15,190.35 6.65,190.35 6.55,190.35 3.35,190.35 3.25,190.35 0.05,190.35 -0.05,190.35 -3.25,190.35 -3.35,190.35 -6.55,190.35 -6.65,190.35 -8.15,190.35"/>
    </edge>
    <edge id=":0/1_w3" function="walkingarea">
        <lane id=":0/1_w3_0" index="0" allow="pedestrian" speed="1.00" length="0.10" width="4.00" shape="1.95,192.35 -2.05,192.35 1.46,190.94 -1.36,193.76"/>
    </edge>
    <edge id=":0/1_w4" function="walkingarea">
        <lane id=":0/1_w4_0" index="0" allow="pedestrian" speed="1.00" length="0.10" width="4.00" shape="-1.95,207.65 2.05,207.65 -2.05,207.65 1.95,207.65"/>
    </edge>
    <edge id=":0/1_w5" function="walkingarea">
        <lane id=":0/1_w5_0" index="0" allow="pedestrian" speed="1.00" length="15.30" width="4.00" shape="-1.36,206.24 1.46,209.06 2.05,192.35 -1.95,192.35"/>
    </edge>
    <edge id=":0/1_w6" function="walkingarea">
        <lane id=":0/1_w6_0" index="0" allow="pedestrian" speed="1.00" length="0.10" width="4.00" shape="6.24,201.36 9.06,198.54 9.06,201.46 6.24,198.64"/>
    </edge>
    <edge id=":0/2_0" function="internal">
        <lane id=":0/2_0_0" index="0" speed="13.90" length="3.20" shape="8.15,404.95 7.25,404.82"/>
        <lane id=":0/2_0_1" index="1" speed="13.90" length="3.20" shape="8.15,401.65 3.86,401.04 2.87,400.44"/>
    </edge>
    <edge id=":0/2_4" function="internal">
        <lane id=":0/2_4_0" index="0" speed="13.90" length="20.22" shape="7.25,404.82 2.42,404.13 -1.68,401.68 -4.13,397.58 -4.95,391.85"/>
    </edge>
    <edge id=":0/2_5" function="internal">
        <lane id=":0/2_5_0" index="0" speed="13.90" length="10.32" shape="2.87,400.44 0.80,399.20 -1.04,396.14 -1.65,391.85"/>
    </edge>
    <edge id=":0/2_2" function="internal">
        <lane id=":0/2_2_0" index="0" speed="13.90" length="3.04" shape="4.95,391.85 5.15,393.25 5.75,394.25 6.75,394.85 8.15,395.05"/>
        <lane id=":0/2_2_1" index="1" speed="13.90" length="3.04" shape="1.65,391.85 1.78,392.75"/>
    </edge>
    <edge id=":0/2_6" function="internal">
        <lane id=":0/2_6_0" index="0" speed="13.90" length="9.57" shape="1.78,392.75 2.06,394.69 3.27,396.73 5.31,397.94 8.15,398.35"/>
    </edge>
    <edge id=":0/2_c0" function="crossing" crossingEdges="0/2to0/1 1/2to0/2">
        <lane id=":0/2_c0_0" index="0" allow="pedestrian" speed="1.00" length="17.96" width="4.00" shape="-6.55,393.85 6.15,406.55"/>
    </edge>
    <edge id=":0/2_c1" function="crossing" crossingEdges="0/1to0/2 0/2to1/2">
        <lane id=":0/2_c1_0" index="0" allow="pedestrian" speed="1.00" length="8.63" width="4.00" shape="0.05,393.85 6.15,399.95"/>
    </edge>
    <edge id=":0/2_w0" function="walkingarea">
        <lane id=":0/2_w0_0" index="0" allow="pedestrian" speed="1.00" length="14.80" width="3.20" shape="8.15,408.15 8.15,406.65 8.15,406.55 8.15,403.35 8.15,403.25 8.15,400.05 8.15,399.95 8.15,396.75 8.15,396.65 8.15,393.45 8.15,393.35 8.15,391.85"/>
    </edge>
    <edge id=":0/2_w1" function="walkingarea">
        <lane id=":0/2_w1_0" index="0" allow="pedestrian" speed="1.00" length="14.80" width="3.20" shape="8.15,391.85 6.65,391.85 6.55,391.85 3.35,391.85 3.25,391.85 0.05,391.85 -0.05,391.85 -3.25,391.85 -3.35,391.85 -6.55,391.85 -6.65,391.85 -8.15,391.85"/>
    </edge>
    <edge id=":0/2_w2" function="walkingarea">
        <lane id=":0/2_w2_0" index="0" allow="pedestrian" speed="1.00" length="14.09" width="4.00" shape="4.74,407.96 7.56,405.14 1.46,392.44 -1.36,395.26"/>
    </edge>
    <edge id=":0/2_w3" function="walkingarea">
        <lane id=":0/2_w3_0" index="0" allow="pedestrian" speed="1.00" length="14.09" width="4.00" shape="4.74,401.36 7.56,398.54 -5.14,392.44 -7.96,395.26"/>
    </edge>
    <edge id=":1/0_0" function="internal">
        <lane id=":1/0_0_0" index="0" speed="13.90" length="4.24" shape="195.05,9.65 194.76,7.59 193.88,6.13 192.41,5.24 190.35,4.95"/>
        <lane id=":1/0_0_1" index="1" speed="13.90" length="4.24" shape="198.35,9.65 198.22,8.75"/>
    </edge>
    <edge id=":1/0_2" function="internal">
        <lane id=":1/0_2_0" index="0" speed="13.90" length="8.21" shape="198.35,9.65 199.06,4.71 200.71,1.95"/>
    </edge>
    <edge id=":1/0_9" function="internal">
        <lane id=":1/0_9_0" index="0" speed="13.90" length="11.99" shape="198.22,8.75 197.85,6.15 196.35,3.65 193.85,2.15 190.35,1.65"/>
    </edge>
    <edge id=":1/0_10" function="internal">
        <lane id=":1/0_10_0" index="0" speed="13.90" length="10.02" shape="200.71,1.95 201.17,1.17 204.71,-0.94 209.65,-1.65"/>
    </edge>
    <edge id=":1/0_3" function="internal">
        <lane id=":1/0_3_0" index="0" speed="13.90" length="7.58" shape="209.65,4.95 207.59,5.24 206.13,6.12 205.24,7.59 204.95,9.65"/>
    </edge>
    <edge id=":1/0_4" function="internal">
        <lane id=":1/0_4_0" index="0" speed="13.90" length="19.30" shape="209.65,4.95 190.35,4.95"/>
        <lane id=":1/0_4_1" index="1" speed="13.90" length="19.30" shape="209.65,1.65 190.35,1.65"/>
    </edge>
    <edge id=":1/0_6" function="internal">
        <lane id=":1/0_6_0" index="0" speed="13.90" length="19.30" shape="190.35,-4.95 209.65,-4.95"/>
        <lane id=":1/0_6_1" index="1" speed="13.90" length="19.30" shape="190.35,-1.65 209.65,-1.65"/>
    </edge>
    <edge id=":1/0_8" function="internal">
        <lane id=":1/0_8_0" index="0" speed="13.90" length="12.66" shape="190.35,-1.65 195.29,-0.94 198.83,1.17 200.65,4.22"/>
    </edge>
    <edge id=":1/0_11" function="internal">
        <lane id=":1/0_11_0" index="0" speed="13.90" length="5.56" shape="200.65,4.22 200.94,4.71 201.65,9.65"/>
    </edge>
    <edge id=":1/0_c0" function="crossing" crossingEdges="1/1to1/0 1/0to0/0">
        <lane id=":1/0_c0_0" index="0" allow="pedestrian" speed="1.00" length="10.75" width="4.00" shape="199.95,7.65 192.35,0.05"/>
    </edge>
    <edge id=":1/0_c1" function="crossing" crossingEdges="2/0to1/0 1/0to1/1">
        <lane id=":1/0_c1_0" index="0" allow="pedestrian" speed="1.00" length="10.75" width="4.00" shape="207.65,0.05 200.05,7.65"/>
    </edge>
    <edge id=":1/0_c2" function="crossing" crossingEdges="2/0to1/0 1/0to0/0">
        <lane id=":1/0_c2_0" index="0" allow="pedestrian" speed="1.00" length="15.30" width="4.00" shape="207.65,0.05 192.35,0.05"/>
    </edge>
    <edge id=":1/0_c3" function="crossing" crossingEdges="0/0to1/0 1/0to2/0">
        <lane id=":1/0_c3_0" index="0" allow="pedestrian" speed="1.00" length="15.30" width="4.00" shape="192.35,-0.05 207.65,-0.05"/>
    </edge>
    <edge id=":1/0_w0" function="walkingarea">
        <lane id=":1/0_w0_0" index="0" allow="pedestrian" speed="1.00" length="14.80" width="3.20" shape="191.85,9.65 193.35,9.65 193.45,9.65 196.65,9.65 196.75,9.65 199.95,9.65 200.05,9.65 203.25,9.65 203.35,9.65 206.55,9.65 206.65,9.65 208.15,9.65"/>
    </edge>
    <edge id=":1/0_w1" function="walkingarea">
        <lane id=":1/0_w1_0" index="0" allow="pedestrian" speed="1.00" length="14.80" width="3.20" shape="209.65,8.15 209.65,6.65 209.65,6.55 209.65,3.35 209.65,3.25 209.65,0.05 209.65,-0.05 209.65,-3.25 209.65,-3.35 209.65,-6.55 209.65,-6.65 209.65,-8.15"/>
    </edge>
    <edge id=":1/0_w2" function="walkingarea">
        <lane id=":1/0_w2_0" index="0" allow="pedestrian" speed="1.00" length="14.80" width="3.20" shape="190.35,-8.15 190.35,-6.65 190.35,-6.55 190.35,-3.35 190.35,-3.25 190.35,-0.05 190.35,0.05 190.35,3.25 190.35,3.35 190.35,6.55 190.35,6.65 190.35,8.15"/>
    </edge>
    <edge id=":1/0_w3" function="walkingarea">
        <lane id=":1/0_w3_0" index="0" allow="pedestrian" speed="1.00" length="0.10" width="4.00" shape="193.76,-1.36 190.94,1.46 192.35,-2.05 192.35,1.95"/>
    </edge>
    <edge id=":1/0_w4" function="walkingarea">
        <lane id=":1/0_w4_0" index="0" allow="pedestrian" speed="1.00" length="0.10" width="4.00" shape="198.64,6.24 201.46,9.06 198.54,9.06 201.36,6.24"/>
    </edge>
    <edge id=":1/0_w5" function="walkingarea">
        <lane id=":1/0_w5_0" index="0" allow="pedestrian" speed="1.00" length="15.30" width="4.00" shape="192.35,-1.95 192.35,2.05 209.06,1.46 206.24,-1.36"/>
    </edge>
    <edge id=":1/0_w6" function="walkingarea">
        <lane id=":1/0_w6_0" index="0" allow="pedestrian" speed="1.00" length="0.10" width="4.00" shape="207.65,1.95 207.65,-2.05 207.65,2.05 207.65,-1.95"/>
    </edge>
    <edge id=":1/1_0" function="internal">
        <lane id=":1/1_0_0" index="0" speed="13.90" length="7.58" shape="195.05,209.65 194.76,207.59 193.88,206.13 192.41,205.24 190.35,204.95"/>
    </edge>
    <edge id=":1/1_1" function="internal">
        <lane id=":1/1_1_0" index="0" speed="13.90" length="19.30" shape="195.05,209.65 195.05,190.35"/>
        <lane id=":1/1_1_1" index="1" speed="13.90" length="19.30" shape="198.35,209.65 198.35,190.35"/>
    </edge>
    <edge id=":1/1_3" function="internal">
        <lane id=":1/1_3_0" index="0" speed="13.90" length="6.93" shape="198.35,209.65 199.06,204.71 200.05,203.05"/>
    </edge>
    <edge id=":1/1_16" function="internal">
        <lane id=":1/1_16_0" index="0" speed="13.90" length="11.30" shape="200.05,203.05 201.17,201.17 204.71,199.06 209.65,198.35"/>
    </edge>
    <edge id=":1/1_4" function="internal">
        <lane id=":1/1_4_0" index="0" speed="13.90" length="7.58" shape="209.65,204.95 207.59,205.24 206.13,206.12 205.24,207.59 204.95,209.65"/>
    </edge>
    <edge id=":1/1_5" function="internal">
        <lane id=":1/1_5_0" index="0" speed="13.90" length="19.30" shape="209.65,204.95 190.35,204.95"/>
        <lane id=":1/1_5_1" index="1" speed="13.90" length="19.30" shape="209.65,201.65 190.35,201.65"/>
    </edge>
    <edge id=":1/1_7" function="internal">
        <lane id=":1/1_7_0" index="0" speed="13.90" length="6.93" shape="209.65,201.65 204.71,200.94 203.05,199.95"/>
    </edge>
    <edge id=":1/1_17" function="internal">
        <lane id=":1/1_17_0" index="0" speed="13.90" length="11.30" shape="203.05,199.95 201.17,198.83 199.06,195.29 198.35,190.35"/>
    </edge>
    <edge id=":1/1_8" function="internal">
        <lane id=":1/1_8_0" index="0" speed="13.90" length="7.58" shape="204.95,190.35 205.24,192.41 206.12,193.88 207.59,194.76 209.65,195.05"/>
    </edge>
    <edge id=":1/1_9" function="internal">
        <lane id=":1/1_9_0" index="0" speed="13.90" length="19.30" shape="204.95,190.35 204.95,209.65"/>
        <lane id=":1/1_9_1" index="1" speed="13.90" length="19.30" shape="201.65,190.35 201.65,209.65"/>
    </edge>
    <edge id=":1/1_11" function="internal">
        <lane id=":1/1_11_0" index="0" speed="13.90" length="6.93" shape="201.65,190.35 200.94,195.29 199.95,196.95"/>
    </edge>
    <edge id=":1/1_18" function="internal">
        <lane id=":1/1_18_0" index="0" speed="13.90" length="11.30" shape="199.95,196.95 198.83,198.83 195.29,200.94 190.35,201.65"/>
    </edge>
    <edge id=":1/1_12" function="internal">
        <lane id=":1/1_12_0" index="0" speed="13.90" length="7.58" shape="190.35,195.05 192.41,194.76 193.88,193.88 194.76,192.41 195.05,190.35"/>
    </edge>
    <edge id=":1/1_13" function="internal">
        <lane id=":1/1_13_0" index="0" speed="13.90" length="19.30" shape="190.35,195.05 209.65,195.05"/>
        <lane id=":1/1_13_1" index="1" speed="13.90" length="19.30" shape="190.35,198.35 209.65,198.35"/>
    </edge>
    <edge id=":1/1_15" function="internal">
        <lane id=":1/1_15_0" index="0" speed="13.90" length="6.93" shape="190.35,198.35 195.29,199.06 196.95,200.05"/>
    </edge>
    <edge id=":1/1_19" function="internal">
        <lane id=":1/1_19_0" index="0" speed="13.90" length="11.30" shape="196.95,200.05 198.83,201.17 200.94,204.71 201.65,209.65"/>
    </edge>
    <edge id=":1/1_c0" function="crossing" crossingEdges="1/2to1/1 1/1to1/0">
        <lane id=":1/1_c0_0" index="0" allow="pedestrian" speed="1.00" length="15.30" width="4.00" shape="199.95,207.65 199.95,192.35"/>
    </edge>
    <edge id=":1/1_c1" function="crossing" crossingEdges="1/0to1/1 1/1to1/2">
        <lane id=":1/1_c1_0" index="0" allow="pedestrian" speed="1.00" length="15.30" width="4.00" shape="200.05,192.35 200.05,207.65"/>
    </edge>
    <edge id=":1/1_c2" function="crossing" crossingEdges="2/1to1/1 1/1to0/1">
        <lane id=":1/1_c2_0" index="0" allow="pedestrian" speed="1.00" length="15.30" width="4.00" shape="207.65,200.05 192.35,200.05"/>
    </edge>
    <edge id=":1/1_c3" function="crossing" crossingEdges="0/1to1/1 1/1to2/1">
        <lane id=":1/1_c3_0" index="0" allow="pedestrian" speed="1.00" length="15.30" width="4.00" shape="192.35,199.95 207.65,199.95"/>
    </edge>
    <edge id=":1/1_w0" function="walkingarea">
        <lane id=":1/1_w0_0" index="0" allow="pedestrian" speed="1.00" length="17.16" width="3.20" shape="191.85,209.65 193.35,209.65 193.45,209.65 196.65,209.65 196.75,209.65 199.95,209.65 200.05,209.65 203.25,209.65 203.35,209.65 206.55,209.65 206.65,209.65 208.15,209.65 209.65,208.15 209.65,206.65 209.65,206.55 209.65,203.35 209.65,203.25 209.65,200.05 209.65,199.95 209.65,196.75 209.65,196.65 209.65,193.45 209.65,193.35 209.65,191.85 208.15,190.35 206.65,190.35 206.55,190.35 203.35,190.35 203.25,190.35 200.05,190.35 199.95,190.35 196.75,190.35 196.65,190.35 193.45,190.35 193.35,190.35 191.85,190.35 190.35,191.85 190.35,193.35 190.35,193.45 190.35,196.65 190.35,196.75 190.35,199.95 190.35,200.05 190.35,203.25 190.35,203.35 190.35,206.55 190.35,206.65 190.35,208.15"/>
    </edge>
    <edge id=":1/1_w1" function="walkingarea">
        <lane id=":1/1_w1_0" index="0" allow="pedestrian" speed="1.00" length="10.75" width="4.00" shape="201.95,192.35 197.95,192.35 192.35,197.95 192.35,201.95"/>
    </edge>
    <edge id=":1/1_w2" function="walkingarea">
        <lane id=":1/1_w2_0" index="0" allow="pedestrian" speed="1.00" length="0.10" width="4.00" shape="198.05,207.65 202.05,207.65 197.95,207.65 201.95,207.65"/>
    </edge>
    <edge id=":1/1_w3" function="walkingarea">
        <lane id=":1/1_w3_0" index="0" allow="pedestrian" speed="1.00" length="10.89" width="4.00" shape="192.35,198.05 192.35,202.05 202.05,192.35 198.05,192.35"/>
    </edge>
    <edge id=":1/1_w4" function="walkingarea">
        <lane id=":1/1_w4_0" index="0" allow="pedestrian" speed="1.00" length="0.10" width="4.00" shape="207.65,201.95 207.65,197.95 207.65,202.05 207.65,198.05"/>
    </edge>
    <edge id=":1/2_0" function="internal">
        <lane id=":1/2_0_0" index="0" speed="13.90" length="19.30" shape="209.65,404.95 190.35,404.95"/>
        <lane id=":1/2_0_1" index="1" speed="13.90" length="19.30" shape="209.65,401.65 190.35,401.65"/>
    </edge>
    <edge id=":1/2_2" function="internal">
        <lane id=":1/2_2_0" index="0" speed="13.90" length="12.66" shape="209.65,401.65 204.71,400.94 201.17,398.82 199.35,395.78"/>
    </edge>
    <edge id=":1/2_9" function="internal">
        <lane id=":1/2_9_0" index="0" speed="13.90" length="5.56" shape="199.35,395.78 199.06,395.29 198.35,390.35"/>
    </edge>
    <edge id=":1/2_3" function="internal">
        <lane id=":1/2_3_0" index="0" speed="13.90" length="4.24" shape="204.95,390.35 205.24,392.41 206.12,393.88 207.59,394.76 209.65,395.05"/>
        <lane id=":1/2_3_1" index="1" speed="13.90" length="4.24" shape="201.65,390.35 201.78,391.25"/>
    </edge>
    <edge id=":1/2_5" function="internal">
        <lane id=":1/2_5_0" index="0" speed="13.90" length="8.21" shape="201.65,390.35 200.94,395.29 199.29,398.05"/>
    </edge>
    <edge id=":1/2_10" function="internal">
        <lane id=":1/2_10_0" index="0" speed="13.90" length="11.99" shape="201.78,391.25 202.15,393.85 203.65,396.35 206.15,397.85 209.65,398.35"/>
    </edge>
    <edge id=":1/2_11" function="internal">
        <lane id=":1/2_11_0" index="0" speed="13.90" length="10.02" shape="199.29,398.05 198.83,398.82 195.29,400.94 190.35,401.65"/>
    </edge>
    <edge id=":1/2_6" function="internal">
        <lane id=":1/2_6_0" index="0" speed="13.90" length="7.58" shape="190.35,395.05 192.41,394.76 193.88,393.88 194.76,392.41 195.05,390.35"/>
    </edge>
    <edge id=":1/2_7" function="internal">
        <lane id=":1/2_7_0" index="0" speed="13.90" length="19.30" shape="190.35,395.05 209.65,395.05"/>
        <lane id=":1/2_7_1" index="1" speed="13.90" length="19.30" shape="190.35,398.35 209.65,398.35"/>
    </edge>
    <edge id=":1/2_c0" function="crossing" crossingEdges="2/2to1/2 1/2to0/2">
        <lane id=":1/2_c0_0" index="0" allow="pedestrian" speed="1.00" length="15.30" width="4.00" shape="207.65,400.05 192.35,400.05"/>
    </edge>
    <edge id=":1/2_c1" function="crossing" crossingEdges="0/2to1/2 1/2to2/2">
        <lane id=":1/2_c1_0" index="0" allow="pedestrian" speed="1.00" length="15.30" width="4.00" shape="192.35,399.95 207.65,399.95"/>
    </edge>
    <edge id=":1/2_c2" function="crossing" crossingEdges="1/1to1/2 1/2to2/2">
        <lane id=":1/2_c2_0" index="0" allow="pedestrian" speed="1.00" length="10.75" width="4.00" shape="200.05,392.35 207.65,399.95"/>
    </edge>
    <edge id=":1/2_c3" function="crossing" crossingEdges="0/2to1/2 1/2to1/1">
        <lane id=":1/2_c3_0" index="0" allow="pedestrian" speed="1.00" length="10.75" width="4.00" shape="192.35,399.95 199.95,392.35"/>
    </edge>
    <edge id=":1/2_w0" function="walkingarea">
        <lane id=":1/2_w0_0" index="0" allow="pedestrian" speed="1.00" length="14.80" width="3.20" shape="209.65,408.15 209.65,406.65 209.65,406.55 209.65,403.35 209.65,403.25 209.65,400.05 209.65,399.95 209.65,396.75 209.65,396.65 209.65,393.45 209.65,393.35 209.65,391.85"/>
    </edge>
    <edge id=":1/2_w1" function="walkingarea">
        <lane id=":1/2_w1_0" index="0" allow="pedestrian" speed="1.00" length="14.80" width="3.20" shape="208.15,390.35 206.65,390.35 206.55,390.35 203.35,390.35 203.25,390.35 200.05,390.35 199.95,390.35 196.75,390.35 196.65,390.35 193.45,390.35 193.35,390.35 191.85,390.35"/>
    </edge>
    <edge id=":1/2_w2" function="walkingarea">
        <lane id=":1/2_w2_0" index="0" allow="pedestrian" speed="1.00" length="14.80" width="3.20" shape="190.35,391.85 190.35,393.35 190.35,393.45 190.35,396.65 190.35,396.75 190.35,399.95 190.35,400.05 190.35,403.25 190.35,403.35 190.35,406.55 190.35,406.65 190.35,408.15"/>
    </edge>
    <edge id=":1/2_w3" function="walkingarea">
        <lane id=":1/2_w3_0" index="0" allow="pedestrian" speed="1.00" length="0.10" width="4.00" shape="192.35,398.05 192.35,402.05 190.94,398.54 193.76,401.36"/>
    </edge>
    <edge id=":1/2_w4" function="walkingarea">
        <lane id=":1/2_w4_0" index="0" allow="pedestrian" speed="1.00" length="0.10" width="4.00" shape="207.65,401.95 207.65,397.95 207.65,402.05 207.65,398.05"/>
    </edge>
    <edge id=":1/2_w5" function="walkingarea">
        <lane id=":1/2_w5_0" index="0" allow="pedestrian" speed="1.00" length="15.30" width="4.00" shape="206.24,401.36 209.06,398.54 192.35,397.95 192.35,401.95"/>
    </edge>
    <edge id=":1/2_w6" function="walkingarea">
        <lane id=":1/2_w6_0" index="0" allow="pedestrian" speed="1.00" length="0.10" width="4.00" shape="201.36,393.76 198.54,390.94 201.46,390.94 198.64,393.76"/>
    </edge>
    <edge id=":2/0_0" function="internal">
        <lane id=":2/0_0_0" index="0" speed="13.90" length="3.04" shape="395.05,8.15 394.85,6.75 394.25,5.75 393.25,5.15 391.85,4.95"/>
        <lane id=":2/0_0_1" index="1" speed="13.90" length="3.04" shape="398.35,8.15 398.22,7.25"/>
    </edge>
    <edge id=":2/0_4" function="internal">
        <lane id=":2/0_4_0" index="0" speed="13.90" length="9.57" shape="398.22,7.25 397.94,5.31 396.73,3.28 394.69,2.06 391.85,1.65"/>
    </edge>
    <edge id=":2/0_2" function="internal">
        <lane id=":2/0_2_0" index="0" speed="13.90" length="3.20" shape="391.85,-4.95 392.75,-4.82"/>
        <lane id=":2/0_2_1" index="1" speed="13.90" length="3.20" shape="391.85,-1.65 396.14,-1.04 397.13,-0.44"/>
    </edge>
    <edge id=":2/0_5" function="internal">
        <lane id=":2/0_5_0" index="0" speed="13.90" length="20.22" shape="392.75,-4.82 397.58,-4.13 401.68,-1.68 404.13,2.42 404.95,8.15"/>
    </edge>
    <edge id=":2/0_6" function="internal">
        <lane id=":2/0_6_0" index="0" speed="13.90" length="10.32" shape="397.13,-0.44 399.20,0.80 401.04,3.86 401.65,8.15"/>
    </edge>
    <edge id=":2/0_c0" function="crossing" crossingEdges="2/1to2/0 2/0to1/0">
        <lane id=":2/0_c0_0" index="0" allow="pedestrian" speed="1.00" length="8.63" width="4.00" shape="399.95,6.15 393.85,0.05"/>
    </edge>
    <edge id=":2/0_c1" function="crossing" crossingEdges="2/0to2/1 1/0to2/0">
        <lane id=":2/0_c1_0" index="0" allow="pedestrian" speed="1.00" length="17.96" width="4.00" shape="406.55,6.15 393.85,-6.55"/>
    </edge>
    <edge id=":2/0_w0" function="walkingarea">
        <lane id=":2/0_w0_0" index="0" allow="pedestrian" speed="1.00" length="14.80" width="3.20" shape="391.85,8.15 393.35,8.15 393.45,8.15 396.65,8.15 396.75,8.15 399.95,8.15 400.05,8.15 403.25,8.15 403.35,8.15 406.55,8.15 406.65,8.15 408.15,8.15"/>
    </edge>
    <edge id=":2/0_w1" function="walkingarea">
        <lane id=":2/0_w1_0" index="0" allow="pedestrian" speed="1.00" length="14.80" width="3.20" shape="391.85,-8.15 391.85,-6.65 391.85,-6.55 391.85,-3.35 391.85,-3.25 391.85,-0.05 391.85,0.05 391.85,3.25 391.85,3.35 391.85,6.55 391.85,6.65 391.85,8.15"/>
    </edge>
    <edge id=":2/0_w2" function="walkingarea">
        <lane id=":2/0_w2_0" index="0" allow="pedestrian" speed="1.00" length="14.09" width="4.00" shape="395.26,-1.36 392.44,1.46 405.14,7.56 407.96,4.74"/>
    </edge>
    <edge id=":2/0_w3" function="walkingarea">
        <lane id=":2/0_w3_0" index="0" allow="pedestrian" speed="1.00" length="14.09" width="4.00" shape="395.26,-7.96 392.44,-5.14 398.54,7.56 401.36,4.74"/>
    </edge>