<?xml version="1.0" encoding="UTF-8"?>

<!-- generated on 2022-06-02 12:40:04 by Eclipse SUMO jtrrouter Version 1.13.0
<configuration xmlns:xsi="http://www.w3.org/2001/XMLSchema-instance" xsi:noNamespaceSchemaLocation="http://sumo.dlr.de/xsd/jtrrouterConfiguration.xsd">

    <input>
        <net-file value="grid.net.xml"/>
        <route-files value="flows.xml"/>
    </input>

    <output>
        <output-file value="grid.rou.xml"/>
    </output>

    <processing>
        <no-internal-links value="true"/>
        <accept-all-destinations value="true"/>
    </processing>

    <time>
        <begin value="0"/>
        <end value="100"/>
    </time>

</configuration>
-->

<routes xmlns:xsi="http://www.w3.org/2001/XMLSchema-instance" xsi:noNamespaceSchemaLocation="http://sumo.dlr.de/xsd/routes_file.xsd">
    

	<vType id="car" length="5.00" maxSpeed="20.00"/>
	
	<vType id="platoon" length="5" maxSpeed="20" tau="0.1" minGap="0.1"/>
	<vType id="leader" length="5" maxSpeed="20" color="red" tau="0.1" minGap="0.1"/>
	<vType id="follower" length="5" maxSpeed="20" color="blue" tau="0.1" minGap="0.1"/>
	<vType id="catch_up" length="5" maxSpeed="20" color ="green" tau="0.1" minGap="0.1"/>

	<flow id="8888888" begin="0" end="0" number="10" from="59472986#0" to="25413576#4" departPos="base" departSpeed="max" 		type="platoon"/>


<vehicle id="1111110.0" depart="0.00">
        <route edges="25413576#4 -25413576#5 -25413576#3 -25413576#2 -25413576#0 -59472986#1 -26351500#1 26351500#1 E2 E1 E5 -26351490 26351490 -26351492#0 146505402#1 146505402#2 146512473#0 -146512473#1 -146505402#3"/>
    </vehicle>
    <vehicle id="1.0" depart="0.00">
        <route edges="-26351520#2 26351520#2 -26351518#5 -26351507#1"/>
    </vehicle>
    <vehicle id="10.0" depart="0.00">
        <route edges="26351520#1 -26351518#5 -26351507#1 -25413576#0 -59472986#1 E2 E0 -146505402#3 -146505402#1 26351491#1 -E5 -E1 -E2 59472986#0 25413576#0 26351507#0 26351518#0 -26351520#2 -26351520#0 26351520#0 26351520#2 26351520#3 E4 26389264#3 -166548734#1 166548734#0 -159664166#0 159393364#1 -33753312#2 -25413576#10 -E4 -26351520#3"/>
    </vehicle>
    <vehicle id="100.0" depart="0.00">
        <route edges="E4 25413576#10 33753312#0 -33753312#2 -25413576#10 -E4 -26351520#3 -26351518#5 26351518#0 -26351520#2 26351520#2 26351520#3 -25413576#5 -25413576#3 -25413576#2 26351507#0 -26351507#1 25413576#2 25413576#3 25413576#4"/>
    </vehicle>
    <vehicle id="101.0" depart="0.00">
        <route edges="26389264#3 -166548734#1 166548734#0 -26389264#6 25413576#10 33753312#0 33753312#3 159664166#0"/>
    </vehicle>
    <vehicle id="102.0" depart="0.00">
        <route edges="146512473#2 26351511#1 26351509#2"/>
    </vehicle>
    <vehicle id="103.0" depart="0.00">
        <route edges="-E2 59472986#0 25413576#0 25413576#2 25413576#3 25413576#4 E4 26389264#3 -159664166#0 159393364#1 -33753312#2 -25413576#10 -E4 -25413576#5 -25413576#3 -25413576#2 26351507#0 -26351507#1 -25413576#0 -59472986#1 -26351500#1 26351500#1 E2 E0 146512473#0 -146512473#1 -E0 E1 26351500#0 -26351500#0 E5 -26351490 26351490 -E5 -E1"/>
    </vehicle>
    <vehicle id="104.0" depart="0.00">
        <route edges="-E1 -E2 59472986#0 25413576#0 26351507#0 -26351507#1 25413576#2 25413576#3 25413576#4 E4 25413576#10 33753312#0 -33753312#2 -25413576#10 26389264#3 -166548734#1 166548734#0 -159664166#0 159393364#1 33753312#3 -E3 -146512473#10 -146512473#6 146512473#2 146512473#7 E3 159664166#0 -26389264#6 -E4 -25413576#5 -25413576#3 -25413576#2 -25413576#0 -59472986#1 E2 E1 26351500#0 -26351500#0 E5"/>
    </vehicle>
    <vehicle id="105.0" depart="0.00">
        <route edges="-26351518#5 26351518#0"/>
    </vehicle>
    <vehicle id="106.0" depart="0.00">
        <route edges="146505402#1 146505402#2 146512473#0 -146512473#1 -146505402#3 -146505402#1 26351491#1 -26351490 26351489#1 -26351489#1 26351490 -E5 -E1 -E2 59472986#0 25413576#0 25413576#2 25413576#3 25413576#4 E4 26389264#3 -166548734#1 166548734#0 -159664166#0 159393364#1 -33753312#2 -25413576#10 -E4 -25413576#5 -25413576#3 -25413576#2 26351507#0 26351518#0 -26351520#2 -26351520#0 26351520#0 26351520#2 -26351518#5 -26351507#1 -25413576#0 -59472986#1 -26351500#1 26351500#1 E2 E0"/>
    </vehicle>
    <vehicle id="107.0" depart="0.00">
        <route edges="E3 159393364#1 33753312#3 -E3 -146512473#10 -146512473#6 146512473#2 26351511#1 26351509#2"/>
    </vehicle>
    <vehicle id="108.0" depart="0.00">
        <route edges="166548734#0 -26389264#6 -E4 -26351520#3 -26351518#5 -26351507#1 25413576#2 25413576#3 25413576#4 E4 25413576#10 33753312#0 -33753312#2 -25413576#10 26389264#3 -166548734#1"/>
    </vehicle>
    <vehicle id="109.0" depart="0.00">
        <route edges="-25413576#5 -25413576#3 -25413576#2 -25413576#0 -59472986#1 -26351500#1 26351500#1 E2 E0 -146505402#3 -146505402#1 26351491#1 -E5 -E1 -E2 59472986#0 25413576#0 25413576#2 25413576#3 25413576#4 E4 26389264#3 -166548734#1 166548734#0 -26389264#6 25413576#10 33753312#0 33753312#3 159393364#1 -33753312#2 -25413576#10 -E4 -26351520#3 -26351520#2"/>
    </vehicle>
    <vehicle id="11.0" depart="0.00">
        <route edges="-59472986#1 -26351500#1 26351500#1 E2 E1 E5 -26351492#0 146505402#1 146505402#2 146512473#0 -146512473#1 -E0 -E2 59472986#0 25413576#0 25413576#2 25413576#3 25413576#4 -25413576#5 -25413576#3"/>
    </vehicle>
    <vehicle id="110.0" depart="0.00">
        <route edges="E4 25413576#10"/>
    </vehicle>
    <vehicle id="111.0" depart="0.00">
        <route edges="159664166#0 -26389264#6 -E4 -26351520#3 -26351518#5 -26351507#1 -25413576#0 -59472986#1 E2 E0 -146505402#3 -146505402#1 26351491#1 -E5 -E1 -E2 -26351500#1 26351500#1"/>
    </vehicle>
    <vehicle id="112.0" depart="0.00">
        <route edges="-146512473#10 146512473#7 E3 159664166#0 -26389264#6 25413576#10"/>
    </vehicle>
    <vehicle id="113.0" depart="0.00">
        <route edges="146512473#7 E3 159664166#0 -166548734#1 166548734#0 -26389264#6 25413576#10 33753312#0 -33753312#2 -25413576#10 26389264#3"/>
    </vehicle>
    <vehicle id="114.0" depart="0.00">
        <route edges="-25413576#5 -25413576#3 -25413576#2 26351507#0 -26351507#1 25413576#2 25413576#3 25413576#4 -26351520#3 -26351518#5 26351518#0 26351520#3 E4 26389264#3 -166548734#1 166548734#0 -159664166#0 -E3 -146512473#10 -146512473#6 146512473#2 146512473#7 E3"/>
    </vehicle>
    <vehicle id="115.0" depart="0.00">
        <route edges="-159664166#0 159393364#1 33753312#3 159664166#0 -166548734#1 166548734#0 -26389264#6 25413576#10 33753312#0 -33753312#2 -25413576#10 -E4 -25413576#5 -25413576#3 -25413576#2 -25413576#0 -59472986#1 E2 E1 E5 -26351490"/>
    </vehicle>
    <vehicle id="116.0" depart="0.00">
        <route edges="25413576#10 33753312#0 33753312#3 -E3 -146512473#10 26351511#1 26351509#2"/>
    </vehicle>
    <vehicle id="117.0" depart="0.00">
        <route edges="-26351507#1 25413576#2 25413576#3 25413576#4 -25413576#5 -25413576#3 -25413576#2 26351507#0 26351518#0 26351520#3 -26351520#3 -26351518#5"/>
    </vehicle>
    <vehicle id="118.0" depart="0.00">
        <route edges="59472986#0 25413576#0 25413576#2 25413576#3 25413576#4 -25413576#5 -25413576#3 -25413576#2 -25413576#0 -59472986#1 E2 E0 -146505402#3 -146505402#1 26351491#1 -26351490 26351490 -E5 26351500#0 -26351500#0 -E1 -E2 -26351500#1 26351500#1"/>
    </vehicle>
    <vehicle id="119.0" depart="0.00">
        <route edges="25413576#10 33753312#0 33753312#3 -E3 -146512473#10 -146512473#6 146512473#2 26351511#1 26351511#3"/>
    </vehicle>
    <vehicle id="12.0" depart="0.00">
        <route edges="E3 159664166#0 -26389264#6 25413576#10 33753312#0 -33753312#2"/>
    </vehicle>
    <vehicle id="120.0" depart="0.00">
        <route edges="-E3 -146512473#10 26351511#1 26351511#3"/>
    </vehicle>
    <vehicle id="121.0" depart="0.00">
        <route edges="159393364#1 -33753312#2 -25413576#10 -E4 -26351520#3 -26351518#5 26351518#0 -26351520#2 -26351520#0 26351520#0 26351520#1 26351520#3 -25413576#5 -25413576#3 -25413576#2 -25413576#0 -59472986#1 E2 E0 -146505402#3 -146505402#1 26351491#1 -26351490 26351489#1 -26351489#1 26351490 -E5 -E1 -E2 59472986#0 25413576#0 26351507#0 -26351507#1 25413576#2 25413576#3 25413576#4 E4 25413576#10 33753312#0 33753312#3 -E3 -146512473#10 -146512473#6 146512473#2 26351511#1 26351509#2"/>
    </vehicle>
    <vehicle id="122.0" depart="0.00">
        <route edges="-26351492#0 146505402#1 146505402#2 146512473#0 -146512473#1 -E0 E1 26351500#0 -26351500#0 -E1 -E2 59472986#0 25413576#0 26351507#0 -26351507#1 -25413576#0 -59472986#1 -26351500#1 26351500#1 E2 E0 -146505402#3 -146505402#1 26351491#1 -26351490 26351490 -E5"/>
    </vehicle>
    <vehicle id="123.0" depart="0.00">
        <route edges="-26351507#1 -25413576#0 -59472986#1 E2 E0 146512473#0 -146512473#1 -E0 -E2 -26351500#1 26351500#1"/>
    </vehicle>
    <vehicle id="124.0" depart="0.00">
        <route edges="26351491#1 -26351490 26351489#1 -26351489#1 26351490 -E5 26351500#0 -26351500#0 E5 -26351492#0 146505402#1 146505402#2 -E0 -E2 59472986#0 25413576#0 26351507#0 -26351507#1 -25413576#0 -59472986#1 E2 E1"/>
    </vehicle>
    <vehicle id="125.0" depart="0.00">
        <route edges="-26389264#6 -E4 -25413576#5 -25413576#3 -25413576#2 -25413576#0 -59472986#1 E2 E1 E5 -26351490 26351490 -26351492#0 146505402#1 146505402#2 -E0 -E2 59472986#0 25413576#0 25413576#2 25413576#3 25413576#4 E4 26389264#3 -159664166#0 -E3 -146512473#10 146512473#7 E3 159393364#1 -33753312#2 -25413576#10"/>
    </vehicle>
    <vehicle id="126.0" depart="0.00">
        <route edges="-159664166#0 -E3 -146512473#10 -146512473#6 146512473#2 26351511#1 26351509#2"/>
    </vehicle>
    <vehicle id="127.0" depart="0.00">
        <route edges="E5"/>
    </vehicle>
    <vehicle id="128.0" depart="0.00">
        <route edges="-159664166#0 -E3 -146512473#10 -146512473#6 146512473#2 26351511#1 26351511#3"/>
    </vehicle>
    <vehicle id="129.0" depart="0.00">
        <route edges="-26351518#5 26351518#0 -26351520#2 26351520#2 26351520#3 -26351520#3"/>
    </vehicle>
    <vehicle id="13.0" depart="0.00">
        <route edges="-25413576#0"/>
    </vehicle>
    <vehicle id="130.0" depart="0.00">
        <route edges="33753312#3"/>
    </vehicle>
    <vehicle id="131.0" depart="0.00">
        <route edges="-E0 -E2 -26351500#1 26351500#1 E2 E0 -146505402#3 -146505402#1 26351491#1 -E5 -E1"/>
    </vehicle>
    <vehicle id="132.0" depart="0.00">
        <route edges="26351520#3 E4 25413576#10 33753312#0 -33753312#2 -25413576#10 26389264#3 -166548734#1 166548734#0 -26389264#6 -E4 -26351520#3 -26351520#2 -26351520#0 26351520#0 26351520#1 -26351518#5 -26351507#1 25413576#2 25413576#3 25413576#4 -25413576#5 -25413576#3 -25413576#2 26351507#0"/>
    </vehicle>
    <vehicle id="133.0" depart="0.00">
        <route edges="25413576#2 25413576#3 25413576#4 E4 25413576#10 33753312#0 -33753312#2 -25413576#10 26389264#3 -166548734#1 166548734#0 -159664166#0 -E3 -146512473#10 146512473#7 E3 159393364#1 33753312#3 159664166#0 -26389264#6 -E4 -25413576#5 -25413576#3 -25413576#2 26351507#0 -26351507#1 -25413576#0 -59472986#1 E2 E1 26351500#0 -26351500#0 -E1 E0 146512473#0 -146512473#1 -146505402#3 -146505402#1 26351491#1 -26351490 26351490 -26351492#0 146505402#1 146505402#2 -E0 -E2 -26351500#1 26351500#1"/>
    </vehicle>
    <vehicle id="134.0" depart="0.00">
        <route edges="26351490 -E5 26351500#0 -26351500#0 -E1 E0 -146505402#3 -146505402#1"/>
    </vehicle>
    <vehicle id="135.0" depart="0.00">
        <route edges="26351520#2 -26351520#2"/>
    </vehicle>
    <vehicle id="136.0" depart="0.00">
        <route edges="26351491#1 -E5 -E1 E0 146512473#0 -146512473#1 -E0 -E2 -26351500#1 26351500#1 E2"/>
    </vehicle>
    <vehicle id="137.0" depart="0.00">
        <route edges="-25413576#3 -25413576#2 -25413576#0 -59472986#1 -26351500#1 26351500#1 E2 E1 E5 -26351490 26351489#1 -26351489#1 26351490 -E5 26351500#0 -26351500#0 -E1 -E2 59472986#0 25413576#0 25413576#2 25413576#3 25413576#4 E4 26389264#3 -159664166#0 -E3 -146512473#10 -146512473#6 146512473#2 146512473#7 E3 159393364#1 -33753312#2 -25413576#10"/>
    </vehicle>
    <vehicle id="138.0" depart="0.00">
        <route edges="-25413576#10 -E4 -25413576#5 -25413576#3 -25413576#2 26351507#0 -26351507#1 25413576#2 25413576#3 25413576#4 -26351520#3 -26351520#2 26351520#2 -26351518#5 26351518#0 26351520#3 E4 26389264#3 -159664166#0 -E3 -146512473#10 -146512473#6 146512473#2 26351511#1 26351511#3"/>
    </vehicle>
    <vehicle id="139.0" depart="0.00">
        <route edges="-26351518#5 -26351507#1 25413576#2 25413576#3"/>
    </vehicle>
    <vehicle id="14.0" depart="0.00">
        <route edges="26389264#3 -166548734#1 166548734#0 -159664166#0 -E3 -146512473#10 146512473#7 E3 159393364#1 33753312#3 159664166#0 -26389264#6 -E4 -25413576#5 -25413576#3 -25413576#2 -25413576#0 -59472986#1 E2 E0 -146505402#3 -146505402#1 26351491#1 -E5 -E1 -E2 59472986#0 25413576#0 26351507#0 -26351507#1 25413576#2 25413576#3"/>
    </vehicle>
    <vehicle id="140.0" depart="0.00">
        <route edges="26351507#0 26351518#0 26351520#3 -25413576#5 -25413576#3 -25413576#2 -25413576#0 -59472986#1 -26351500#1 26351500#1 E2 E0 -146505402#3 -146505402#1 26351491#1 -26351490 26351489#1 -26351489#1 26351490 -26351492#0"/>
    </vehicle>
    <vehicle id="141.0" depart="0.00">
        <route edges="25413576#4 E4 25413576#10 33753312#0 -33753312#2 -25413576#10 -E4 -26351520#3 -26351520#2 26351520#1 26351520#3 -25413576#5 -25413576#3 -25413576#2 26351507#0 26351518#0 -26351518#5"/>
    </vehicle>
    <vehicle id="142.0" depart="0.00">
        <route edges="146512473#2 26351511#1 26351509#2"/>
    </vehicle>
    <vehicle id="143.0" depart="0.00">
        <route edges="26389264#3 -166548734#1"/>
    </vehicle>
    <vehicle id="144.0" depart="0.00">
        <route edges="-E4 -26351520#3 -26351520#2 26351520#2 26351520#3 E4 26389264#3 -159664166#0 -E3 -146512473#10 146512473#7 E3 159393364#1 -33753312#2 -25413576#10"/>
    </vehicle>
    <vehicle id="145.0" depart="0.00">
        <route edges="-146505402#1 26351491#1 -E5 26351500#0 -26351500#0 -E1 -E2 59472986#0 25413576#0 26351507#0 26351518#0 -26351520#2 26351520#2 -26351518#5 -26351507#1 25413576#2 25413576#3 25413576#4 E4 25413576#10 33753312#0 33753312#3 159393364#1 -33753312#2 -25413576#10 26389264#3 -166548734#1 166548734#0 -26389264#6 -E4 -25413576#5 -25413576#3 -25413576#2 -25413576#0 -59472986#1 E2 E1 E5 -26351490 26351490 -26351492#0 146505402#1 146505402#2 -E0"/>
    </vehicle>
    <vehicle id="146.0" depart="0.00">
        <route edges="25413576#4 E4 26389264#3 -166548734#1 166548734#0 -26389264#6 25413576#10 33753312#0 -33753312#2 -25413576#10 -E4 -26351520#3 -26351520#2 26351520#2 26351520#3 -25413576#5 -25413576#3 -25413576#2 -25413576#0 -59472986#1 -26351500#1 26351500#1 E2 E0 -146505402#3 -146505402#1 26351491#1 -26351490 26351490 -26351492#0 146505402#1 146505402#2 -E0 -E2 59472986#0 25413576#0 25413576#2 25413576#3"/>
    </vehicle>
    <vehicle id="147.0" depart="0.00">
        <route edges="26351509#1 26351509#2"/>
    </vehicle>
    <vehicle id="148.0" depart="0.00">
        <route edges="-E4 -25413576#5 -25413576#3 -25413576#2 26351507#0 26351518#0 26351520#3 -26351520#3 -26351520#2 26351520#2 -26351518#5 -26351507#1 -25413576#0 -59472986#1 E2 E1 26351500#0 -26351500#0 -E1 E0 146512473#0 -146512473#1 -E0 -E2 59472986#0 25413576#0 25413576#2 25413576#3 25413576#4 E4 26389264#3 -166548734#1 166548734#0 -26389264#6 25413576#10 33753312#0 -33753312#2 -25413576#10"/>
    </vehicle>
    <vehicle id="149.0" depart="0.00">
        <route edges="-159664166#0 -E3 -146512473#10 146512473#7 E3 159393364#1 -33753312#2 -25413576#10 -E4 -26351520#3 26351520#3 -25413576#5 -25413576#3 -25413576#2 -25413576#0 -59472986#1 E2 E1 26351500#0 -26351500#0 -E1 E0 146512473#0 -146512473#1 -146505402#3 -146505402#1 26351491#1 -E5"/>
    </vehicle>
    <vehicle id="15.0" depart="0.00">
        <route edges="26351520#2 26351520#3 -25413576#5 -25413576#3 -25413576#2 -25413576#0 -59472986#1 E2 E1 E5 -26351492#0 146505402#1 146505402#2 146512473#0 -146512473#1 -E0 -E2 59472986#0 25413576#0 25413576#2 25413576#3 25413576#4 E4 26389264#3 -166548734#1 166548734#0 -26389264#6 25413576#10 33753312#0 -33753312#2 -25413576#10 -E4 -26351520#3 -26351518#5 26351518#0 -26351520#2 26351520#1"/>
    </vehicle>
    <vehicle id="150.0" depart="0.00">
        <route edges="E0 146512473#0 -146512473#1 -E0 E1 26351500#0 -26351500#0 -E1 -E2 59472986#0 25413576#0 25413576#2 25413576#3 25413576#4 -26351520#3 26351520#3 -25413576#5 -25413576#3 -25413576#2 -25413576#0 -59472986#1 -26351500#1 26351500#1 E2"/>
    </vehicle>
    <vehicle id="151.0" depart="0.00">
        <route edges="26351520#3 E4 25413576#10"/>
    </vehicle>
    <vehicle id="152.0" depart="0.00">
        <route edges="-25413576#5 -25413576#3 -25413576#2"/>
    </vehicle>
    <vehicle id="153.0" depart="0.00">
        <route edges="-26389264#6 25413576#10 33753312#0 -33753312#2 -25413576#10 26389264#3 -166548734#1 166548734#0 -159664166#0 -E3 -146512473#10 26351511#1 26351509#2"/>
    </vehicle>
    <vehicle id="154.0" depart="0.00">
        <route edges="26351520#1 26351520#3 E4 26389264#3 -159664166#0 159393364#1 33753312#3 -E3 -146512473#10 146512473#7 E3 159664166#0 -26389264#6 -E4 -25413576#5 -25413576#3 -25413576#2 -25413576#0 -59472986#1 E2 E1 E5 -26351490 26351489#1 -26351489#1 26351490 -E5 26351500#0 -26351500#0 -E1 -E2 -26351500#1 26351500#1"/>
    </vehicle>
    <vehicle id="155.0" depart="0.00">
        <route edges="59472986#0 25413576#0 26351507#0 -26351507#1 -25413576#0 -59472986#1 -26351500#1"/>
    </vehicle>
    <vehicle id="156.0" depart="0.00">
        <route edges="-26351511#1 146512473#7 E3 159664166#0 -166548734#1 166548734#0 -26389264#6 -E4 -25413576#5 -25413576#3 -25413576#2 -25413576#0"/>
    </vehicle>
    <vehicle id="157.0" depart="0.00">
        <route edges="26351520#0 -26351520#0"/>
    </vehicle>
    <vehicle id="158.0" depart="0.00">
        <route edges="-E3 -146512473#10 -146512473#6 146512473#2 146512473#7 E3 159664166#0 -166548734#1 166548734#0 -26389264#6 -E4 -25413576#5 -25413576#3 -25413576#2 -25413576#0 -59472986#1 -26351500#1 26351500#1 E2 E0 146512473#0 -146512473#1 -146505402#3 -146505402#1 26351491#1 -E5 -E1 -E2 59472986#0 25413576#0 26351507#0 26351518#0 26351520#3 E4 25413576#10 33753312#0 -33753312#2 -25413576#10 26389264#3 -159664166#0 159393364#1 33753312#3"/>
    </vehicle>
    <vehicle id="159.0" depart="0.00">
        <route edges="-25413576#5 -25413576#3 -25413576#2 26351507#0 -26351507#1 -25413576#0 -59472986#1 -26351500#1 26351500#1 E2 E0 -146505402#3 -146505402#1 26351491#1 -26351490 26351490 -26351492#0 146505402#1 146505402#2 146512473#0 -146512473#1 -E0 E1"/>
    </vehicle>
    <vehicle id="16.0" depart="0.00">
        <route edges="159664166#0 -26389264#6 -E4 -26351520#3 -26351520#2 26351520#1 26351520#3 -25413576#5 -25413576#3 -25413576#2 -25413576#0 -59472986#1 E2 E0 -146505402#3 -146505402#1 26351491#1 -26351490 26351490 -26351492#0 146505402#1 146505402#2 -E0 -E2 -26351500#1 26351500#1"/>
    </vehicle>
    <vehicle id="160.0" depart="0.00">
        <route edges="33753312#0 33753312#3 -E3 -146512473#10 -146512473#6 146512473#2 26351511#1 26351511#3"/>
    </vehicle>
    <vehicle id="161.0" depart="0.00">
        <route edges="26351520#2 26351520#3 -25413576#5 -25413576#3 -25413576#2 26351507#0 26351518#0 -26351520#2 -26351520#0 26351520#0 26351520#1 -26351518#5 -26351507#1 25413576#2 25413576#3 25413576#4 -26351520#3"/>
    </vehicle>
    <vehicle id="162.0" depart="0.00">
        <route edges="-146505402#3 -146505402#1 26351491#1 -E5 -E1 E0 146512473#0 -146512473#1 -E0 E1 E5 -26351492#0 146505402#1 146505402#2"/>
    </vehicle>
    <vehicle id="163.0" depart="0.00">
        <route edges="-33753312#2 -25413576#10 -E4 -25413576#5 -25413576#3 -25413576#2 26351507#0 -26351507#1 25413576#2 25413576#3 25413576#4 -26351520#3 -26351520#2 26351520#2 -26351518#5 26351518#0 26351520#3 E4 25413576#10 33753312#0 33753312#3 159664166#0 -26389264#6"/>
    </vehicle>
    <vehicle id="164.0" depart="0.00">
        <route edges="26351520#1 -26351518#5 26351518#0 26351520#3 E4 25413576#10 33753312#0"/>
    </vehicle>
    <vehicle id="165.0" depart="0.00">
        <route edges="26351520#2 -26351518#5"/>
    </vehicle>
    <vehicle id="166.0" depart="0.00">
        <route edges="26351520#0 26351520#1 -26351518#5 -26351507#1 25413576#2 25413576#3 25413576#4 -25413576#5 -25413576#3 -25413576#2 26351507#0 26351518#0 26351520#3 E4 26389264#3 -159664166#0 -E3 -146512473#10 -146512473#6 146512473#2 146512473#7 E3 159393364#1 33753312#3 159664166#0 -26389264#6 -E4 -26351520#3 -26351520#2 -26351520#0"/>
    </vehicle>
    <vehicle id="167.0" depart="0.00">
        <route edges="33753312#3 -E3 -146512473#10 26351511#1 26351509#2"/>
    </vehicle>
    <vehicle id="168.0" depart="0.00">
        <route edges="-26351500#0 -E1 -E2 -26351500#1 26351500#1 E2 E0 146512473#0 -146512473#1 -146505402#3 -146505402#1 26351491#1 -E5 26351500#0"/>
    </vehicle>
    <vehicle id="169.0" depart="0.00">
        <route edges="146505402#1 146505402#2 146512473#0 -146512473#1 -E0 -E2 59472986#0 25413576#0 25413576#2 25413576#3 25413576#4 E4 26389264#3 -166548734#1 166548734#0 -159664166#0 159393364#1 33753312#3 -E3 -146512473#10 -146512473#6 146512473#2 26351511#1 26351511#3"/>
    </vehicle>
    <vehicle id="17.0" depart="0.00">
        <route edges="-E1 E0 -146505402#3 -146505402#1 26351491#1 -26351490 26351490 -26351492#0 146505402#1 146505402#2 -E0 -E2 -26351500#1 26351500#1 E2 E1 26351500#0 -26351500#0 E5"/>
    </vehicle>
    <vehicle id="170.0" depart="0.00">
        <route edges="26351520#1 -26351518#5 -26351507#1"/>
    </vehicle>
    <vehicle id="171.0" depart="0.00">
        <route edges="-146505402#3 -146505402#1 26351491#1 -26351490 26351489#1 -26351489#1 26351490 -26351492#0"/>
    </vehicle>
    <vehicle id="172.0" depart="0.00">
        <route edges="-33753312#2 -25413576#10 -E4 -26351520#3 -26351520#2 -26351520#0 26351520#0 26351520#2 -26351518#5 -26351507#1 -25413576#0 -59472986#1 -26351500#1 26351500#1 E2 E1 E5 -26351492#0 146505402#1 146505402#2 -E0 -E2 59472986#0 25413576#0 25413576#2 25413576#3 25413576#4 E4 26389264#3 -159664166#0 159393364#1 33753312#3 -E3 -146512473#10 26351511#1 26351509#2"/>
    </vehicle>
    <vehicle id="173.0" depart="0.00">
        <route edges="E3 159393364#1 -33753312#2 -25413576#10 -E4 -26351520#3 -26351520#2 26351520#2 -26351518#5 -26351507#1 25413576#2 25413576#3 25413576#4 -25413576#5 -25413576#3 -25413576#2 -25413576#0 -59472986#1 -26351500#1 26351500#1 E2 E0 -146505402#3 -146505402#1 26351491#1 -26351490 26351490 -26351492#0 146505402#1 146505402#2 146512473#0 -146512473#1 -E0 -E2 59472986#0 25413576#0 26351507#0 26351518#0 26351520#3 E4 25413576#10 33753312#0 33753312#3 159664166#0 -26389264#6"/>
    </vehicle>
    <vehicle id="174.0" depart="0.00">
        <route edges="25413576#4 -26351520#3 -26351520#2 26351520#2 -26351518#5 26351518#0 26351520#3 E4 26389264#3 -166548734#1 166548734#0 -159664166#0 -E3 -146512473#10 -146512473#6 146512473#2 146512473#7 E3 159393364#1 33753312#3 159664166#0 -26389264#6 25413576#10 33753312#0 -33753312#2 -25413576#10 -E4 -25413576#5 -25413576#3 -25413576#2 26351507#0 -26351507#1 -25413576#0 -59472986#1 E2 E0 146512473#0 -146512473#1 -146505402#3 -146505402#1 26351491#1 -26351490 26351490 -26351492#0 146505402#1 146505402#2 -E0 E1 E5"/>
    </vehicle>
    <vehicle id="175.0" depart="0.00">
        <route edges="E4 26389264#3 -159664166#0 -E3 -146512473#10 26351511#1 26351509#2"/>
    </vehicle>
    <vehicle id="176.0" depart="0.00">
        <route edges="E2 E0 146512473#0 -146512473#1 -E0 E1 26351500#0 -26351500#0 E5 -26351490 26351490 -26351492#0 146505402#1 146505402#2"/>
    </vehicle>
    <vehicle id="177.0" depart="0.00">
        <route edges="E4 26389264#3 -166548734#1 166548734#0 -26389264#6 25413576#10 33753312#0 -33753312#2 -25413576#10 -E4 -26351520#3 -26351520#2 -26351520#0 26351520#0 26351520#1 -26351518#5 -26351507#1 25413576#2 25413576#3 25413576#4 -25413576#5 -25413576#3 -25413576#2 26351507#0 26351518#0 26351520#3"/>
    </vehicle>
    <vehicle id="178.0" depart="0.00">
        <route edges="E3 159393364#1 -33753312#2 -25413576#10 -E4 -25413576#5 -25413576#3 -25413576#2 -25413576#0 -59472986#1 -26351500#1 26351500#1 E2 E1 26351500#0 -26351500#0 E5 -26351490 26351490 -26351492#0 146505402#1 146505402#2 146512473#0 -146512473#1 -146505402#3 -146505402#1 26351491#1 -E5 -E1 E0"/>
    </vehicle>
    <vehicle id="179.0" depart="0.00">
        <route edges="-25413576#10 -E4"/>
    </vehicle>
    <vehicle id="18.0" depart="0.00">
        <route edges="26351520#3 E4 25413576#10 33753312#0 -33753312#2 -25413576#10 26389264#3 -166548734#1 166548734#0 -159664166#0 -E3 -146512473#10 146512473#7 E3 159664166#0 -26389264#6 -E4 -25413576#5 -25413576#3 -25413576#2 -25413576#0 -59472986#1 -26351500#1 26351500#1 E2 E0 146512473#0 -146512473#1 -E0 -E2 59472986#0 25413576#0 25413576#2 25413576#3"/>
    </vehicle>
    <vehicle id="180.0" depart="0.00">
        <route edges="26351509#1 -26351511#1 26351511#1 26351509#2"/>
    </vehicle>
    <vehicle id="181.0" depart="0.00">
        <route edges="25413576#2 25413576#3 25413576#4 E4 26389264#3 -159664166#0 -E3 -146512473#10 26351511#1 26351509#2"/>
    </vehicle>
    <vehicle id="182.0" depart="0.00">
        <route edges="-E1 -E2 -26351500#1 26351500#1 E2 E1 E5 -26351490 26351490 -E5 26351500#0 -26351500#0"/>
    </vehicle>
    <vehicle id="183.0" depart="0.00">
        <route edges="-26351511#1 26351511#1 26351509#2"/>
    </vehicle>
    <vehicle id="184.0" depart="0.00">
        <route edges="-146505402#1 26351491#1 -E5 26351500#0 -26351500#0 -E1 E0 146512473#0 -146512473#1 -E0 -E2 59472986#0 25413576#0 25413576#2 25413576#3 25413576#4 E4 25413576#10 33753312#0 33753312#3 -E3 -146512473#10 26351511#1 26351509#2"/>
    </vehicle>
    <vehicle id="185.0" depart="0.00">
        <route edges="159664166#0 -166548734#1 166548734#0 -159664166#0 -E3 -146512473#10 26351511#1 26351509#2"/>
    </vehicle>
    <vehicle id="186.0" depart="0.00">
        <route edges="26351511#1 26351509#2"/>
    </vehicle>
    <vehicle id="187.0" depart="0.00">
        <route edges="-E0 -E2 59472986#0 25413576#0 26351507#0 -26351507#1 -25413576#0 -59472986#1 -26351500#1 26351500#1 E2 E1 26351500#0 -26351500#0 -E1 E0 146512473#0 -146512473#1 -146505402#3 -146505402#1 26351491#1 -E5"/>
    </vehicle>
    <vehicle id="188.0" depart="0.00">
        <route edges="26351491#1 -26351490 26351490 -26351492#0 146505402#1 146505402#2 146512473#0 -146512473#1 -146505402#3 -146505402#1"/>
    </vehicle>
    <vehicle id="189.0" depart="0.00">
        <route edges="-26389264#6 -E4 -25413576#5 -25413576#3 -25413576#2 26351507#0 -26351507#1 -25413576#0 -59472986#1 -26351500#1 26351500#1 E2 E0 146512473#0 -146512473#1 -146505402#3 -146505402#1 26351491#1 -26351490 26351489#1 -26351489#1 26351490 -26351492#0 146505402#1 146505402#2 -E0 -E2 59472986#0 25413576#0 25413576#2 25413576#3 25413576#4 E4 26389264#3"/>
    </vehicle>
    <vehicle id="19.0" depart="0.00">
        <route edges="33753312#0 33753312#3 159664166#0 -166548734#1 166548734#0 -26389264#6 25413576#10"/>
    </vehicle>
    <vehicle id="190.0" depart="0.00">
        <route edges="26351507#0 26351518#0 -26351520#2"/>
    </vehicle>
    <vehicle id="191.0" depart="0.00">
        <route edges="-26389264#6 25413576#10 33753312#0 33753312#3 159664166#0 -166548734#1 166548734#0 -159664166#0 -E3 -146512473#10 26351511#1 26351509#2"/>
    </vehicle>
    <vehicle id="192.0" depart="0.00">
        <route edges="-E2 -26351500#1 26351500#1 E2 E0 -146505402#3 -146505402#1 26351491#1 -26351490 26351490 -26351492#0 146505402#1 146505402#2 -E0 E1 26351500#0 -26351500#0 -E1"/>
    </vehicle>
    <vehicle id="193.0" depart="0.00">
        <route edges="-25413576#2 -25413576#0 -59472986#1 -26351500#1 26351500#1 E2 E1 26351500#0 -26351500#0 E5 -26351490 26351490 -26351492#0 146505402#1 146505402#2 146512473#0 -146512473#1 -E0 -E2 59472986#0 25413576#0 26351507#0 -26351507#1 25413576#2 25413576#3 25413576#4 -26351520#3 -26351520#2 -26351520#0 26351520#0 26351520#1 26351520#3 -25413576#5 -25413576#3"/>
    </vehicle>
    <vehicle id="194.0" depart="0.00">
        <route edges="E2 E0 -146505402#3 -146505402#1 26351491#1"/>
    </vehicle>
    <vehicle id="195.0" depart="0.00">
        <route edges="59472986#0 25413576#0 25413576#2 25413576#3"/>
    </vehicle>
    <vehicle id="196.0" depart="0.00">
        <route edges="-26351520#3 -26351520#2 26351520#2 -26351518#5 -26351507#1 -25413576#0 -59472986#1 E2 E1 26351500#0 -26351500#0 -E1 E0 -146505402#3 -146505402#1 26351491#1 -26351490 26351490 -E5"/>
    </vehicle>
    <vehicle id="197.0" depart="0.00">
        <route edges="-146505402#1 26351491#1 -E5 26351500#0 -26351500#0 -E1 -E2 59472986#0 25413576#0 25413576#2 25413576#3 25413576#4 E4 26389264#3 -159664166#0 159393364#1 -33753312#2 -25413576#10 -E4 -26351520#3 -26351520#2"/>
    </vehicle>
    <vehicle id="198.0" depart="0.00">
        <route edges="-E4 -26351520#3 -26351520#2 26351520#2 26351520#3 E4 25413576#10"/>
    </vehicle>
    <vehicle id="199.0" depart="0.00">
        <route edges="26351490 -E5 -E1 E0 -146505402#3 -146505402#1 26351491#1 -26351490 26351489#1 -26351489#1"/>
    </vehicle>
    <vehicle id="2.0" depart="0.00">
        <route edges="26351509#1 26351511#3"/>
    </vehicle>
    <vehicle id="20.0" depart="0.00">
        <route edges="26351504#4 26351515 -26351515"/>
    </vehicle>