<?xml version="1.0" encoding="UTF-8"?>

<!-- generated on 2022-05-18 10:01:57 by Eclipse SUMO netedit Version 1.13.0
-->

<routes xmlns:xsi="http://www.w3.org/2001/XMLSchema-instance" xsi:noNamespaceSchemaLocation="http://sumo.dlr.de/xsd/routes_file.xsd">
    <!-- Routes -->
    <route id="r_0" edges="WE E3 E0 E1 E2 EW E4 E5 E6 E7 WE"/>
    

    <!-- Vehicles, persons and containers (sorted by depart) -->
	<vType id="car" length="5" maxSpeed="40"/>	
	<flow id="WE_Lane0" from="WE" to="EW" begin="0" end="0" number="40" departPos="random_free" departSpeed="max" departLane="0" type="car"/>
	<flow id="WE_Lane1" from="WE" to="EW" begin="0" end="0" number="40" departPos="random_free" departSpeed="max" departLane="1" type="car"/>
	<flow id="WE_Lane2" from="WE" to="EW" begin="0" end="0" number="40" departPos="random_free" departSpeed="max" departLane="2" type="car"/>

	<flow id="EW_Lane0" from="EW" to="WE" begin="0" end="0" number="40" departPos="random_free" departSpeed="max" departLane="1" type="car"/>
	<flow id="EW_Lane1" from="EW" to="WE" begin="0" end="0" number="40" departPos="random_free" departSpeed="max" departLane="2" type="car"/>
	
</routes>
